  
       XFOIL         Version 6.97
  
 Calculated polar for: NACA 4412                                       
  
 1 1 Reynolds number fixed          Mach number fixed         
  
 xtrf =   1.000 (top)        1.000 (bottom)  
 Mach =   0.000     Re =     0.050 e 6     Ncrit =   9.000
  
   alpha    CL        CD       CDp       CM     Top_Xtr  Bot_Xtr
  ------ -------- --------- --------- -------- -------- --------
 -15.000  -0.2797   0.16657   0.15924  -0.0323   1.0000   0.1313
 -14.900  -0.2777   0.16571   0.15838  -0.0325   1.0000   0.1326
 -14.800  -0.2764   0.16501   0.15768  -0.0326   1.0000   0.1341
 -14.700  -0.2757   0.16446   0.15713  -0.0328   1.0000   0.1355
 -14.600  -0.2756   0.16409   0.15675  -0.0331   1.0000   0.1370
 -14.500  -0.2765   0.16397   0.15662  -0.0334   1.0000   0.1384
 -14.400  -0.2788   0.16420   0.15686  -0.0338   1.0000   0.1396
 -14.300  -0.2828   0.16488   0.15755  -0.0343   1.0000   0.1404
 -14.200  -0.2882   0.16586   0.15855  -0.0347   1.0000   0.1409
 -14.100  -0.2949   0.16698   0.15968  -0.0351   1.0000   0.1412
 -14.000  -0.3023   0.16813   0.16084  -0.0355   1.0000   0.1415
 -13.900  -0.2838   0.16199   0.15470  -0.0353   1.0000   0.1427
 -13.800  -0.2727   0.15863   0.15134  -0.0349   1.0000   0.1445
 -13.700  -0.2681   0.15707   0.14978  -0.0348   1.0000   0.1464
 -13.600  -0.2655   0.15600   0.14871  -0.0348   1.0000   0.1483
 -13.500  -0.2643   0.15518   0.14790  -0.0349   1.0000   0.1502
 -13.400  -0.2644   0.15460   0.14731  -0.0351   1.0000   0.1522
 -13.300  -0.2662   0.15433   0.14705  -0.0353   1.0000   0.1541
 -13.200  -0.2704   0.15457   0.14729  -0.0357   1.0000   0.1555
 -13.100  -0.2767   0.15521   0.14795  -0.0361   1.0000   0.1563
 -13.000  -0.2843   0.15603   0.14878  -0.0365   1.0000   0.1568
 -12.900  -0.2925   0.15687   0.14964  -0.0370   1.0000   0.1571
 -12.800  -0.2744   0.15157   0.14435  -0.0365   1.0000   0.1587
 -12.700  -0.2640   0.14880   0.14158  -0.0361   1.0000   0.1608
 -12.600  -0.2599   0.14738   0.14016  -0.0359   1.0000   0.1627
 -12.500  -0.2579   0.14632   0.13910  -0.0359   1.0000   0.1647
 -12.400  -0.2572   0.14545   0.13823  -0.0359   1.0000   0.1666
 -12.300  -0.2579   0.14478   0.13757  -0.0360   1.0000   0.1686
 -12.200  -0.2607   0.14445   0.13725  -0.0363   1.0000   0.1705
 -12.100  -0.2663   0.14461   0.13743  -0.0366   1.0000   0.1718
 -12.000  -0.2741   0.14509   0.13793  -0.0370   1.0000   0.1726
 -11.900  -0.2829   0.14566   0.13855  -0.0374   1.0000   0.1730
 -11.800  -0.2922   0.14624   0.13916  -0.0379   1.0000   0.1733
 -11.700  -0.2637   0.13978   0.13267  -0.0368   1.0000   0.1757
 -11.600  -0.2566   0.13788   0.13077  -0.0363   1.0000   0.1778
 -11.500  -0.2534   0.13663   0.12953  -0.0361   1.0000   0.1802
 -11.400  -0.2525   0.13568   0.12859  -0.0360   1.0000   0.1827
 -11.300  -0.2539   0.13503   0.12795  -0.0360   1.0000   0.1852
 -11.200  -0.2589   0.13483   0.12778  -0.0362   1.0000   0.1873
 -11.100  -0.2671   0.13510   0.12807  -0.0365   1.0000   0.1886
 -11.000  -0.2767   0.13551   0.12853  -0.0369   1.0000   0.1892
 -10.900  -0.2869   0.13595   0.12901  -0.0372   1.0000   0.1896
 -10.800  -0.3352   0.13333   0.12577  -0.0334   1.0000   0.1876
 -10.700  -0.3441   0.13385   0.12634  -0.0343   1.0000   0.1888
 -10.600  -0.3544   0.13450   0.12706  -0.0351   1.0000   0.1894
 -10.500  -0.3365   0.13002   0.12255  -0.0342   1.0000   0.1915
 -10.400  -0.3244   0.12750   0.12001  -0.0333   1.0000   0.1947
 -10.300  -0.3206   0.12622   0.11874  -0.0331   1.0000   0.1977
 -10.200  -0.3206   0.12538   0.11792  -0.0332   1.0000   0.2008
 -10.100  -0.3253   0.12514   0.11772  -0.0335   1.0000   0.2036
 -10.000  -0.3351   0.12560   0.11824  -0.0341   1.0000   0.2051
  -9.900  -0.3468   0.12624   0.11896  -0.0347   1.0000   0.2059
  -9.800  -0.3324   0.12254   0.11525  -0.0340   1.0000   0.2079
  -9.700  -0.3195   0.11999   0.11267  -0.0332   1.0000   0.2109
  -9.600  -0.3157   0.11870   0.11139  -0.0328   1.0000   0.2138
  -9.500  -0.3156   0.11781   0.11053  -0.0327   1.0000   0.2167
  -9.400  -0.3201   0.11745   0.11020  -0.0327   1.0000   0.2196
  -9.300  -0.3314   0.11789   0.11071  -0.0330   1.0000   0.2216
  -9.200  -0.3455   0.11863   0.11154  -0.0332   1.0000   0.2225
  -9.100  -0.3402   0.11634   0.10928  -0.0328   1.0000   0.2238
  -9.000  -0.3209   0.11300   0.10587  -0.0319   1.0000   0.2269
  -8.900  -0.3160   0.11163   0.10451  -0.0313   1.0000   0.2301
  -8.800  -0.3165   0.11082   0.10373  -0.0309   1.0000   0.2336
  -8.700  -0.3236   0.11065   0.10362  -0.0307   1.0000   0.2367
  -8.600  -0.3372   0.11116   0.10421  -0.0305   1.0000   0.2385
  -8.500  -0.3527   0.11181   0.10496  -0.0301   1.0000   0.2393
  -8.400  -0.3287   0.10763   0.10072  -0.0294   1.0000   0.2430
  -8.300  -0.3205   0.10606   0.09915  -0.0286   1.0000   0.2474
  -8.200  -0.3233   0.10547   0.09859  -0.0280   1.0000   0.2513
  -8.100  -0.3339   0.10555   0.09875  -0.0274   1.0000   0.2541
  -8.000  -0.3491   0.10605   0.09934  -0.0266   1.0000   0.2555
  -7.900  -0.3652   0.10656   0.09994  -0.0255   1.0000   0.2562
  -7.800  -0.3813   0.10702   0.10048  -0.0242   1.0000   0.2565
  -7.600  -0.3395   0.10090   0.09426  -0.0234   1.0000   0.2695
  -7.500  -0.3545   0.10127   0.09472  -0.0221   1.0000   0.2717
  -7.400  -0.3719   0.10181   0.09535  -0.0206   1.0000   0.2727
  -7.300  -0.3894   0.10228   0.09592  -0.0190   1.0000   0.2732
  -7.200  -0.4066   0.10265   0.09638  -0.0180   1.0000   0.2736
  -7.100  -0.3530   0.09683   0.09039  -0.0185   1.0000   0.2832
  -7.000  -0.3629   0.09670   0.09033  -0.0170   1.0000   0.2863
  -6.900  -0.3799   0.09710   0.09082  -0.0152   1.0000   0.2884
  -6.800  -0.3998   0.09768   0.09149  -0.0138   1.0000   0.2897
  -6.700  -0.4201   0.09819   0.09210  -0.0136   1.0000   0.2906
  -6.500  -0.3851   0.09317   0.08701  -0.0108   1.0000   0.2998
  -6.400  -0.3951   0.09295   0.08685  -0.0096   1.0000   0.3033
  -6.300  -0.4157   0.09345   0.08745  -0.0091   1.0000   0.3065
  -6.200  -0.4310   0.09326   0.08735  -0.0092   1.0000   0.3082
  -6.100  -0.4089   0.09049   0.08453  -0.0067   1.0000   0.3124
  -6.000  -0.4077   0.08961   0.08366  -0.0055   1.0000   0.3175
  -5.900  -0.4212   0.08955   0.08367  -0.0051   1.0000   0.3222
  -5.800  -0.4423   0.08981   0.08402  -0.0063   1.0000   0.3250
  -5.700  -0.4210   0.08725   0.08143  -0.0028   1.0000   0.3302
  -5.600  -0.4231   0.08658   0.08078  -0.0018   1.0000   0.3363
  -5.500  -0.4465   0.08711   0.08138  -0.0036   1.0000   0.3414
  -5.400  -0.4317   0.08486   0.07912  -0.0002   1.0000   0.3459
  -5.300  -0.4306   0.08405   0.07833   0.0011   1.0000   0.3526
  -5.200  -0.4487   0.08403   0.07839  -0.0004   1.0000   0.3591
  -5.100  -0.4360   0.08225   0.07659   0.0029   1.0000   0.3643
  -5.000  -0.4441   0.08199   0.07637   0.0030   1.0000   0.3735
  -4.900  -0.4437   0.08068   0.07509   0.0043   1.0000   0.3785
  -4.800  -0.4398   0.07968   0.07411   0.0060   1.0000   0.3846
  -4.700  -0.4485   0.07908   0.07355   0.0058   1.0000   0.3943
  -4.600  -0.4429   0.07790   0.07238   0.0080   1.0000   0.3992
  -4.500  -0.4504   0.07737   0.07188   0.0079   1.0000   0.4110
  -4.400  -0.4452   0.07616   0.07069   0.0101   1.0000   0.4155
  -4.300  -0.4507   0.07556   0.07012   0.0104   1.0000   0.4283
  -4.200  -0.4460   0.07446   0.06903   0.0126   1.0000   0.4338
  -4.100  -0.4489   0.07373   0.06834   0.0138   1.0000   0.4470
  -4.000  -0.4519   0.07318   0.06781   0.0151   1.0000   0.4621
  -3.900  -0.4471   0.07215   0.06679   0.0176   1.0000   0.4700
  -3.800  -0.3362   0.04753   0.03981  -0.0461   1.0000   0.1829
  -3.700  -0.3250   0.04595   0.03803  -0.0474   1.0000   0.1818
  -3.600  -0.3143   0.04470   0.03658  -0.0483   1.0000   0.1827
  -3.500  -0.3035   0.04356   0.03524  -0.0492   1.0000   0.1843
  -3.400  -0.2921   0.04243   0.03386  -0.0501   1.0000   0.1861
  -3.300  -0.2803   0.04131   0.03245  -0.0511   1.0000   0.1877
  -3.200  -0.2679   0.04024   0.03105  -0.0521   1.0000   0.1891
  -3.100  -0.2598   0.03958   0.03044  -0.0521   1.0000   0.1917
  -3.000  -0.2525   0.03924   0.03015  -0.0520   1.0000   0.1951
  -2.900  -0.2433   0.03877   0.02958  -0.0522   1.0000   0.1988
  -2.800  -0.2325   0.03815   0.02873  -0.0527   1.0000   0.2025
  -2.700  -0.2204   0.03748   0.02771  -0.0534   1.0000   0.2059
  -2.600  -0.2128   0.03705   0.02739  -0.0533   1.0000   0.2095
  -2.500  -0.2048   0.03681   0.02717  -0.0533   1.0000   0.2141
  -2.400  -0.1948   0.03645   0.02664  -0.0536   1.0000   0.2195
  -2.300  -0.1843   0.03602   0.02604  -0.0540   1.0000   0.2243
  -2.200  -0.1766   0.03579   0.02588  -0.0539   1.0000   0.2289
  -2.100  -0.1675   0.03559   0.02559  -0.0541   1.0000   0.2351
  -2.000  -0.1457   0.03528   0.02521  -0.0564   0.9959   0.2452
  -1.900  -0.1218   0.03508   0.02479  -0.0590   0.9922   0.2575
  -1.800  -0.1040   0.03490   0.02467  -0.0607   0.9877   0.2688
  -1.700  -0.0834   0.03471   0.02445  -0.0627   0.9836   0.2819
  -1.600  -0.0627   0.03457   0.02428  -0.0648   0.9796   0.2972
  -1.500  -0.0462   0.03441   0.02410  -0.0661   0.9748   0.3123
  -1.400  -0.0260   0.03427   0.02397  -0.0680   0.9707   0.3309
  -1.300  -0.0069   0.03415   0.02387  -0.0696   0.9666   0.3521
  -1.200   0.0086   0.03401   0.02372  -0.0707   0.9615   0.3734
  -1.100   0.0281   0.03383   0.02367  -0.0723   0.9575   0.4010
  -0.900   0.0606   0.03345   0.02363  -0.0746   0.9489   0.4687
  -0.800   0.0768   0.03315   0.02365  -0.0755   0.9448   0.5199
  -0.700   0.0933   0.03256   0.02371  -0.0761   0.9417   0.6164
  -0.600   0.0953   0.03146   0.02370  -0.0725   0.9374   0.9239
  -0.500   0.1104   0.03166   0.02342  -0.0742   0.9304   1.0000
  -0.400   0.1322   0.03205   0.02349  -0.0765   0.9261   1.0000
  -0.300   0.1468   0.03240   0.02364  -0.0776   0.9212   1.0000
  -0.200   0.1576   0.03270   0.02380  -0.0780   0.9156   1.0000
  -0.100   0.1761   0.03306   0.02398  -0.0796   0.9112   1.0000
   0.000   0.1943   0.03343   0.02419  -0.0812   0.9070   1.0000
   0.100   0.2004   0.03371   0.02440  -0.0808   0.9010   1.0000
   0.200   0.2166   0.03404   0.02461  -0.0821   0.8964   1.0000
   0.300   0.2385   0.03439   0.02483  -0.0842   0.8928   1.0000
   0.400   0.2415   0.03472   0.02510  -0.0833   0.8869   1.0000
   0.500   0.2541   0.03505   0.02534  -0.0839   0.8821   1.0000
   0.600   0.2733   0.03537   0.02555  -0.0856   0.8783   1.0000
   0.700   0.2835   0.03572   0.02583  -0.0858   0.8735   1.0000
   0.800   0.2908   0.03607   0.02612  -0.0856   0.8681   1.0000
   0.900   0.3068   0.03638   0.02636  -0.0867   0.8640   1.0000
   1.000   0.3281   0.03667   0.02657  -0.0886   0.8607   1.0000
   1.100   0.3278   0.03711   0.02698  -0.0873   0.8550   1.0000
   1.200   0.3387   0.03746   0.02727  -0.0876   0.8504   1.0000
   1.300   0.3568   0.03774   0.02748  -0.0889   0.8467   1.0000
   1.400   0.3701   0.03809   0.02777  -0.0896   0.8427   1.0000
   1.500   0.3721   0.03855   0.02821  -0.0886   0.8373   1.0000
   1.600   0.3849   0.03889   0.02850  -0.0892   0.8331   1.0000
   1.700   0.4038   0.03915   0.02871  -0.0906   0.8298   1.0000
   1.800   0.4103   0.03960   0.02913  -0.0903   0.8253   1.0000
   1.900   0.4146   0.04007   0.02957  -0.0897   0.8203   1.0000
   2.000   0.4286   0.04038   0.02985  -0.0904   0.8164   1.0000
   2.100   0.4485   0.04060   0.03002  -0.0918   0.8132   1.0000
   2.200   0.4500   0.04118   0.03058  -0.0909   0.8085   1.0000
   2.300   0.4551   0.04167   0.03106  -0.0905   0.8038   1.0000
   2.400   0.4692   0.04199   0.03134  -0.0911   0.8000   1.0000
   2.500   0.4894   0.04217   0.03150  -0.0925   0.7970   1.0000
   2.600   0.4888   0.04283   0.03215  -0.0914   0.7920   1.0000
   2.700   0.4939   0.04336   0.03266  -0.0910   0.7875   1.0000
   2.800   0.5077   0.04368   0.03297  -0.0916   0.7838   1.0000
   2.900   0.5277   0.04386   0.03312  -0.0929   0.7809   1.0000
   3.000   0.5264   0.04459   0.03385  -0.0917   0.7761   1.0000
   3.100   0.5304   0.04517   0.03442  -0.0912   0.7715   1.0000
   3.200   0.5442   0.04549   0.03472  -0.0917   0.7677   1.0000
   3.300   0.5645   0.04562   0.03485  -0.0930   0.7647   1.0000
   3.400   0.5626   0.04645   0.03567  -0.0918   0.7602   1.0000
   3.500   0.5651   0.04712   0.03634  -0.0912   0.7556   1.0000
   3.600   0.5780   0.04746   0.03668  -0.0916   0.7518   1.0000
   3.700   0.5985   0.04755   0.03678  -0.0928   0.7487   1.0000
   3.800   0.5971   0.04840   0.03762  -0.0917   0.7441   1.0000
   3.900   0.5983   0.04916   0.03838  -0.0910   0.7396   1.0000
   4.000   0.6102   0.04954   0.03877  -0.0913   0.7359   1.0000
   4.100   0.6304   0.04963   0.03887  -0.0924   0.7328   1.0000
   4.200   0.6303   0.05049   0.03972  -0.0915   0.7283   1.0000
   4.300   0.6299   0.05133   0.04057  -0.0907   0.7236   1.0000
   4.400   0.6417   0.05172   0.04097  -0.0909   0.7197   1.0000
   4.500   0.6619   0.05179   0.04107  -0.0919   0.7166   1.0000
   4.600   0.6614   0.05272   0.04200  -0.0911   0.7123   1.0000
   4.700   0.6596   0.05366   0.04295  -0.0902   0.7075   1.0000
   4.800   0.6714   0.05405   0.04335  -0.0904   0.7035   1.0000
   4.900   0.6933   0.05401   0.04334  -0.0914   0.7002   1.0000
   5.000   0.6894   0.05513   0.04446  -0.0904   0.6957   1.0000
   5.100   0.6877   0.05613   0.04547  -0.0896   0.6912   1.0000
   5.200   0.6999   0.05650   0.04587  -0.0898   0.6871   1.0000
   5.300   0.7237   0.05633   0.04575  -0.0908   0.6838   1.0000
   5.400   0.7148   0.05773   0.04715  -0.0894   0.6789   1.0000
   5.500   0.7149   0.05869   0.04812  -0.0888   0.6743   1.0000
   5.600   0.7286   0.05900   0.04846  -0.0891   0.6704   1.0000
   5.700   0.7551   0.05865   0.04816  -0.0902   0.6671   1.0000
   5.800   0.7382   0.06052   0.05003  -0.0884   0.6617   1.0000
   5.900   0.7413   0.06135   0.05087  -0.0880   0.6571   1.0000
   6.000   0.7592   0.06141   0.05098  -0.0885   0.6531   1.0000
   6.100   0.7760   0.06157   0.05117  -0.0888   0.6494   1.0000
   6.200   0.7602   0.06346   0.05307  -0.0874   0.6442   1.0000
   6.300   0.7680   0.06405   0.05368  -0.0872   0.6395   1.0000
   6.400   0.7930   0.06367   0.05337  -0.0879   0.6356   1.0000
   6.500   0.7865   0.06513   0.05485  -0.0870   0.6308   1.0000
   6.600   0.7826   0.06643   0.05616  -0.0863   0.6259   1.0000
   6.700   0.7983   0.06656   0.05634  -0.0865   0.6214   1.0000
   6.800   0.8232   0.06613   0.05596  -0.0870   0.6173   1.0000
   6.900   0.8020   0.06852   0.05835  -0.0855   0.6118   1.0000
   7.000   0.8095   0.06914   0.05900  -0.0853   0.6070   1.0000
   7.100   0.8387   0.06836   0.05830  -0.0859   0.6027   1.0000
   7.200   0.8239   0.07046   0.06040  -0.0848   0.5975   1.0000
   7.300   0.8235   0.07158   0.06155  -0.0843   0.5923   1.0000
   7.400   0.8487   0.07097   0.06103  -0.0846   0.5875   1.0000
   7.500   0.8464   0.07230   0.06238  -0.0840   0.5825   1.0000
   7.600   0.8393   0.07393   0.06402  -0.0833   0.5772   1.0000
   7.700   0.8610   0.07348   0.06365  -0.0834   0.5719   1.0000
   7.800   0.8669   0.07420   0.06441  -0.0830   0.5668   1.0000
   7.900   0.8563   0.07613   0.06635  -0.0823   0.5612   1.0000
   8.000   0.8781   0.07561   0.06590  -0.0822   0.5558   1.0000
   8.100   0.8837   0.07634   0.06668  -0.0818   0.5505   1.0000
   8.200   0.8730   0.07833   0.06868  -0.0811   0.5447   1.0000
   8.300   0.9015   0.07713   0.06757  -0.0810   0.5389   1.0000
   8.400   0.8958   0.07879   0.06925  -0.0804   0.5333   1.0000
   8.500   0.8911   0.08034   0.07083  -0.0799   0.5274   1.0000
   8.600   0.9352   0.07756   0.06820  -0.0795   0.5215   1.0000
   8.700   0.9067   0.08132   0.07193  -0.0790   0.5155   1.0000
   8.800   0.9157   0.08163   0.07229  -0.0785   0.5091   1.0000
   8.900   0.9443   0.08007   0.07084  -0.0778   0.5030   1.0000
   9.000   0.9206   0.08353   0.07427  -0.0775   0.4968   1.0000
   9.100   0.9613   0.08052   0.07141  -0.0765   0.4899   1.0000
   9.200   0.9412   0.08377   0.07463  -0.0762   0.4837   1.0000
   9.300   0.9489   0.08408   0.07500  -0.0756   0.4768   1.0000
   9.400   0.9759   0.08227   0.07332  -0.0745   0.4700   1.0000
   9.500   0.9550   0.08571   0.07672  -0.0744   0.4634   1.0000
   9.600   1.0332   0.07734   0.06865  -0.0716   0.4557   1.0000
   9.700   0.9716   0.08606   0.07721  -0.0729   0.4493   1.0000
   9.900   0.9943   0.08543   0.07673  -0.0710   0.4344   1.0000
  10.000   1.3349   0.04359   0.03550  -0.0680   0.3906   1.0000
  10.100   1.3469   0.04259   0.03443  -0.0668   0.3757   1.0000
  10.200   1.3553   0.04192   0.03368  -0.0653   0.3610   1.0000
  10.300   1.3465   0.04279   0.03466  -0.0629   0.3516   1.0000
  10.400   1.3499   0.04258   0.03437  -0.0611   0.3375   1.0000
  10.500   1.3521   0.04251   0.03420  -0.0593   0.3234   1.0000
  10.600   1.3534   0.04257   0.03414  -0.0575   0.3098   1.0000
  10.700   1.3545   0.04274   0.03417  -0.0557   0.2963   1.0000
  10.800   1.3559   0.04302   0.03427  -0.0540   0.2829   1.0000
  10.900   1.3581   0.04339   0.03444  -0.0525   0.2695   1.0000
  11.000   1.3502   0.04448   0.03565  -0.0504   0.2616   1.0000
  11.100   1.3514   0.04511   0.03612  -0.0491   0.2503   1.0000
  11.200   1.3555   0.04565   0.03645  -0.0480   0.2385   1.0000
  11.300   1.3501   0.04675   0.03765  -0.0463   0.2314   1.0000
  11.400   1.3542   0.04748   0.03823  -0.0454   0.2215   1.0000
  11.500   1.3549   0.04836   0.03908  -0.0442   0.2135   1.0000
  11.600   1.3573   0.04932   0.03999  -0.0433   0.2058   1.0000
  11.700   1.3613   0.05012   0.04070  -0.0425   0.1980   1.0000
  11.800   1.3636   0.05118   0.04175  -0.0416   0.1916   1.0000
  11.900   1.3645   0.05220   0.04281  -0.0406   0.1860   1.0000
  12.000   1.3754   0.05307   0.04354  -0.0404   0.1786   1.0000
  12.100   1.3724   0.05429   0.04489  -0.0393   0.1749   1.0000
  12.200   1.3932   0.05498   0.04528  -0.0399   0.1661   1.0000
  12.300   1.3874   0.05627   0.04677  -0.0385   0.1639   1.0000
  12.400   1.3842   0.05756   0.04821  -0.0373   0.1612   1.0000
  12.500   1.3876   0.05864   0.04933  -0.0367   0.1573   1.0000
  12.600   1.4060   0.05963   0.05016  -0.0372   0.1513   1.0000
  12.700   1.3995   0.06100   0.05172  -0.0359   0.1499   1.0000
  12.800   1.3945   0.06240   0.05327  -0.0348   0.1482   1.0000
  12.900   1.3921   0.06376   0.05474  -0.0339   0.1460   1.0000
  13.000   1.3942   0.06497   0.05600  -0.0333   0.1434   1.0000
  13.100   1.4192   0.06608   0.05691  -0.0341   0.1381   1.0000
  13.200   1.4105   0.06760   0.05859  -0.0329   0.1374   1.0000
  13.300   1.4019   0.06919   0.06035  -0.0318   0.1368   1.0000
  13.400   1.3931   0.07087   0.06219  -0.0308   0.1362   1.0000
  13.500   1.3840   0.07264   0.06410  -0.0299   0.1356   1.0000
  13.600   1.3746   0.07449   0.06609  -0.0292   0.1351   1.0000
  13.700   1.3647   0.07645   0.06818  -0.0286   0.1347   1.0000
  13.800   1.3541   0.07852   0.07038  -0.0282   0.1344   1.0000
  13.900   1.3428   0.08073   0.07271  -0.0279   0.1343   1.0000
  14.000   1.3305   0.08311   0.07522  -0.0278   0.1342   1.0000
  14.100   1.3172   0.08568   0.07791  -0.0278   0.1344   1.0000
  14.200   1.3029   0.08847   0.08081  -0.0281   0.1347   1.0000
  14.300   1.2878   0.09149   0.08393  -0.0287   0.1352   1.0000
  14.400   1.2721   0.09473   0.08727  -0.0295   0.1357   1.0000
  14.500   1.2562   0.09819   0.09082  -0.0305   0.1363   1.0000
  14.600   1.2402   0.10185   0.09454  -0.0318   0.1369   1.0000
  14.700   1.2244   0.10569   0.09844  -0.0333   0.1375   1.0000
  14.800   1.2091   0.10969   0.10249  -0.0350   0.1381   1.0000
  14.900   1.1944   0.11382   0.10666  -0.0368   0.1385   1.0000
