  
       XFOIL         Version 6.97
  
 Calculated polar for: NACA 4412                                       
  
 1 1 Reynolds number fixed          Mach number fixed         
  
 xtrf =   1.000 (top)        1.000 (bottom)  
 Mach =   0.000     Re =     0.200 e 6     Ncrit =   9.000
  
   alpha    CL        CD       CDp       CM     Top_Xtr  Bot_Xtr
  ------ -------- --------- --------- -------- -------- --------
 -15.000  -0.4230   0.17154   0.16746  -0.0226   1.0000   0.0402
 -14.900  -0.4179   0.17013   0.16604  -0.0225   1.0000   0.0404
 -14.800  -0.4136   0.16886   0.16477  -0.0227   1.0000   0.0406
 -14.700  -0.4098   0.16766   0.16357  -0.0229   1.0000   0.0409
 -14.600  -0.4062   0.16648   0.16239  -0.0232   1.0000   0.0412
 -14.500  -0.4029   0.16531   0.16122  -0.0236   1.0000   0.0416
 -14.400  -0.3998   0.16412   0.16004  -0.0240   1.0000   0.0420
 -14.300  -0.3968   0.16292   0.15884  -0.0245   1.0000   0.0424
 -14.200  -0.3939   0.16170   0.15762  -0.0250   1.0000   0.0429
 -14.100  -0.3913   0.16045   0.15638  -0.0255   1.0000   0.0434
 -14.000  -0.3888   0.15919   0.15512  -0.0261   1.0000   0.0439
 -13.900  -0.3867   0.15789   0.15382  -0.0268   1.0000   0.0446
 -13.800  -0.3855   0.15660   0.15253  -0.0277   1.0000   0.0453
 -13.700  -0.3879   0.15548   0.15143  -0.0295   1.0000   0.0459
 -13.600  -0.3935   0.15468   0.15065  -0.0316   1.0000   0.0462
 -13.500  -0.3989   0.15383   0.14981  -0.0334   1.0000   0.0463
 -13.400  -0.4016   0.15252   0.14852  -0.0351   1.0000   0.0464
 -13.300  -0.3928   0.15007   0.14607  -0.0340   1.0000   0.0467
 -13.200  -0.3811   0.14810   0.14409  -0.0326   1.0000   0.0470
 -13.100  -0.3747   0.14679   0.14278  -0.0322   1.0000   0.0474
 -13.000  -0.3701   0.14564   0.14163  -0.0321   1.0000   0.0478
 -12.900  -0.3663   0.14452   0.14052  -0.0322   1.0000   0.0482
 -12.800  -0.3631   0.14340   0.13940  -0.0324   1.0000   0.0487
 -12.700  -0.3602   0.14225   0.13824  -0.0327   1.0000   0.0492
 -12.600  -0.3577   0.14106   0.13706  -0.0331   1.0000   0.0498
 -12.500  -0.3556   0.13984   0.13585  -0.0335   1.0000   0.0504
 -12.400  -0.3537   0.13858   0.13460  -0.0340   1.0000   0.0510
 -12.300  -0.3522   0.13729   0.13331  -0.0345   1.0000   0.0517
 -12.200  -0.3518   0.13598   0.13200  -0.0354   1.0000   0.0525
 -12.100  -0.3563   0.13478   0.13083  -0.0372   1.0000   0.0535
 -12.000  -0.3653   0.13371   0.12978  -0.0398   1.0000   0.0539
 -11.900  -0.3705   0.13232   0.12841  -0.0417   1.0000   0.0540
 -11.800  -0.3737   0.13087   0.12699  -0.0432   1.0000   0.0541
 -11.600  -0.3627   0.12710   0.12322  -0.0417   1.0000   0.0546
 -11.500  -0.3552   0.12581   0.12192  -0.0408   1.0000   0.0549
 -11.400  -0.3490   0.12461   0.12073  -0.0402   1.0000   0.0552
 -11.300  -0.3443   0.12350   0.11962  -0.0399   1.0000   0.0556
 -11.200  -0.3407   0.12243   0.11855  -0.0397   1.0000   0.0560
 -11.100  -0.3377   0.12135   0.11748  -0.0397   1.0000   0.0565
 -11.000  -0.3353   0.12027   0.11641  -0.0397   1.0000   0.0570
 -10.900  -0.3334   0.11916   0.11531  -0.0399   1.0000   0.0575
 -10.800  -0.3320   0.11804   0.11419  -0.0400   1.0000   0.0581
 -10.700  -0.3309   0.11689   0.11306  -0.0402   1.0000   0.0588
 -10.600  -0.3305   0.11573   0.11191  -0.0405   1.0000   0.0597
 -10.500  -0.3314   0.11452   0.11072  -0.0410   1.0000   0.0607
 -10.400  -0.3379   0.11325   0.10948  -0.0424   1.0000   0.0620
 -10.300  -0.3518   0.11187   0.10814  -0.0451   1.0000   0.0627
 -10.200  -0.3607   0.11052   0.10683  -0.0467   1.0000   0.0629
 -10.100  -0.3676   0.10919   0.10553  -0.0476   1.0000   0.0630
 -10.000  -0.3744   0.10785   0.10423  -0.0484   1.0000   0.0631
  -9.900  -0.3595   0.10572   0.10208  -0.0455   1.0000   0.0638
  -9.800  -0.3517   0.10490   0.10126  -0.0441   1.0000   0.0642
  -9.700  -0.3467   0.10413   0.10048  -0.0431   1.0000   0.0646
  -9.600  -0.3437   0.10333   0.09970  -0.0423   1.0000   0.0651
  -9.500  -0.3420   0.10251   0.09889  -0.0417   1.0000   0.0655
  -9.400  -0.3415   0.10168   0.09807  -0.0412   1.0000   0.0660
  -9.300  -0.3419   0.10083   0.09724  -0.0406   1.0000   0.0665
  -9.200  -0.3431   0.09998   0.09641  -0.0401   1.0000   0.0670
  -9.100  -0.3449   0.09913   0.09558  -0.0396   1.0000   0.0675
  -9.000  -0.3476   0.09829   0.09477  -0.0391   1.0000   0.0681
  -8.900  -0.3510   0.09746   0.09396  -0.0385   1.0000   0.0687
  -8.800  -0.3553   0.09664   0.09316  -0.0379   1.0000   0.0693
  -8.700  -0.3607   0.09583   0.09238  -0.0372   1.0000   0.0699
  -8.600  -0.3676   0.09504   0.09162  -0.0366   1.0000   0.0706
  -8.500  -0.3768   0.09427   0.09089  -0.0360   1.0000   0.0713
  -8.400  -0.3898   0.09356   0.09023  -0.0354   1.0000   0.0719
  -8.300  -0.4055   0.09298   0.08970  -0.0347   1.0000   0.0723
  -8.200  -0.4206   0.09250   0.08927  -0.0337   1.0000   0.0725
  -8.100  -0.4349   0.09207   0.08887  -0.0325   1.0000   0.0727
  -8.000  -0.4489   0.08871   0.08555  -0.0400   0.9974   0.0731
  -7.900  -0.4451   0.08199   0.07877  -0.0508   0.9934   0.0736
  -7.800  -0.4375   0.08138   0.07819  -0.0480   0.9931   0.0740
  -7.700  -0.4287   0.08077   0.07759  -0.0464   0.9926   0.0744
  -7.600  -0.4187   0.08008   0.07690  -0.0456   0.9919   0.0748
  -7.500  -0.4096   0.07926   0.07608  -0.0453   0.9903   0.0753
  -7.400  -0.4001   0.07820   0.07500  -0.0460   0.9884   0.0760
  -7.300  -0.3900   0.07683   0.07363  -0.0475   0.9864   0.0769
  -7.200  -0.3793   0.07522   0.07200  -0.0498   0.9844   0.0782
  -7.100  -0.3682   0.07289   0.06964  -0.0540   0.9823   0.0802
  -7.000  -0.3711   0.06036   0.05670  -0.0750   0.9726   0.0857
  -6.900  -0.3592   0.05991   0.05634  -0.0744   0.9717   0.0863
  -6.800  -0.3465   0.05970   0.05618  -0.0740   0.9708   0.0869
  -6.700  -0.3337   0.05905   0.05554  -0.0745   0.9698   0.0877
  -6.600  -0.3207   0.05782   0.05429  -0.0760   0.9688   0.0887
  -6.500  -0.3142   0.05636   0.05279  -0.0769   0.9648   0.0895
  -6.400  -0.3051   0.05440   0.05076  -0.0789   0.9616   0.0905
  -6.300  -0.2941   0.05170   0.04796  -0.0819   0.9591   0.0914
  -6.200  -0.3078   0.02574   0.01919  -0.0917   0.9556   0.0571
  -6.100  -0.2911   0.02522   0.01861  -0.0929   0.9547   0.0583
  -5.900  -0.2707   0.02408   0.01725  -0.0928   0.9478   0.0601
  -5.800  -0.2562   0.02344   0.01644  -0.0935   0.9460   0.0612
  -5.700  -0.2406   0.02297   0.01578  -0.0944   0.9444   0.0626
  -5.600  -0.2255   0.02212   0.01484  -0.0954   0.9432   0.0641
  -5.500  -0.2095   0.02166   0.01442  -0.0966   0.9422   0.0657
  -5.400  -0.1928   0.02134   0.01408  -0.0977   0.9412   0.0674
  -5.300  -0.1757   0.02095   0.01364  -0.0989   0.9404   0.0692
  -5.200  -0.1583   0.02052   0.01311  -0.1001   0.9397   0.0711
  -5.000  -0.1390   0.01986   0.01228  -0.0995   0.9321   0.0741
  -4.900  -0.1242   0.01937   0.01184  -0.1004   0.9305   0.0763
  -4.800  -0.1082   0.01910   0.01159  -0.1014   0.9291   0.0787
  -4.700  -0.0917   0.01881   0.01125  -0.1024   0.9280   0.0813
  -4.600  -0.0753   0.01851   0.01087  -0.1033   0.9269   0.0838
  -4.500  -0.0594   0.01800   0.01034  -0.1043   0.9259   0.0866
  -4.400  -0.0434   0.01767   0.01007  -0.1053   0.9249   0.0896
  -4.300  -0.0272   0.01743   0.00982  -0.1062   0.9240   0.0931
  -4.200  -0.0225   0.01735   0.00970  -0.1049   0.9178   0.0953
  -4.100  -0.0090   0.01712   0.00940  -0.1052   0.9155   0.0982
  -4.000   0.0048   0.01669   0.00905  -0.1058   0.9136   0.1020
  -3.900   0.0197   0.01647   0.00885  -0.1064   0.9120   0.1062
  -3.800   0.0350   0.01627   0.00859  -0.1071   0.9106   0.1107
  -3.700   0.0498   0.01586   0.00823  -0.1078   0.9093   0.1154
  -3.600   0.0612   0.01570   0.00809  -0.1078   0.9062   0.1199
  -3.500   0.0705   0.01560   0.00796  -0.1073   0.9016   0.1245
  -3.400   0.0829   0.01530   0.00770  -0.1075   0.8989   0.1298
  -3.300   0.0965   0.01509   0.00751  -0.1079   0.8967   0.1358
  -3.200   0.1107   0.01488   0.00727  -0.1083   0.8948   0.1426
  -3.100   0.1245   0.01461   0.00707  -0.1088   0.8932   0.1497
  -3.000   0.1343   0.01453   0.00696  -0.1084   0.8889   0.1565
  -2.900   0.1445   0.01432   0.00682  -0.1082   0.8848   0.1634
  -2.800   0.1569   0.01418   0.00665  -0.1083   0.8819   0.1722
  -2.700   0.1697   0.01393   0.00647  -0.1085   0.8795   0.1812
  -2.600   0.1833   0.01373   0.00628  -0.1088   0.8774   0.1917
  -2.500   0.1932   0.01361   0.00620  -0.1085   0.8730   0.2011
  -2.400   0.2034   0.01346   0.00610  -0.1083   0.8685   0.2113
  -2.300   0.2154   0.01332   0.00596  -0.1083   0.8653   0.2235
  -2.200   0.2279   0.01312   0.00580  -0.1084   0.8626   0.2362
  -2.100   0.2406   0.01293   0.00566  -0.1086   0.8601   0.2498
  -2.000   0.2492   0.01285   0.00563  -0.1081   0.8543   0.2624
  -1.900   0.2603   0.01270   0.00553  -0.1080   0.8503   0.2774
  -1.800   0.2724   0.01253   0.00540  -0.1080   0.8471   0.2939
  -1.700   0.2848   0.01235   0.00526  -0.1082   0.8445   0.3123
  -1.600   0.2936   0.01225   0.00524  -0.1077   0.8386   0.3300
  -1.500   0.3044   0.01208   0.00515  -0.1075   0.8342   0.3515
  -1.400   0.3159   0.01188   0.00503  -0.1075   0.8307   0.3775
  -1.300   0.3268   0.01166   0.00494  -0.1074   0.8271   0.4107
  -1.200   0.3355   0.01145   0.00494  -0.1069   0.8214   0.4572
  -1.100   0.3448   0.01115   0.00490  -0.1065   0.8170   0.5307
  -1.000   0.3538   0.01081   0.00487  -0.1058   0.8135   0.6208
  -0.900   0.3605   0.01055   0.00490  -0.1045   0.8086   0.7073
  -0.800   0.3668   0.01032   0.00493  -0.1029   0.8034   0.7921
  -0.700   0.3799   0.01013   0.00489  -0.1025   0.7995   0.8870
  -0.600   0.4097   0.01000   0.00475  -0.1059   0.7965   0.9673
  -0.500   0.4353   0.00996   0.00467  -0.1089   0.7909   1.0000
  -0.400   0.4454   0.00997   0.00461  -0.1086   0.7855   1.0000
  -0.300   0.4565   0.00997   0.00452  -0.1085   0.7813   1.0000
  -0.200   0.4663   0.00999   0.00450  -0.1082   0.7756   1.0000
  -0.100   0.4762   0.01001   0.00446  -0.1079   0.7700   1.0000
   0.000   0.4872   0.01002   0.00439  -0.1077   0.7655   1.0000
   0.100   0.4973   0.01005   0.00437  -0.1075   0.7601   1.0000
   0.200   0.5073   0.01008   0.00436  -0.1072   0.7543   1.0000
   0.300   0.5182   0.01011   0.00430  -0.1070   0.7497   1.0000
   0.400   0.5285   0.01014   0.00429  -0.1068   0.7444   1.0000
   0.500   0.5384   0.01018   0.00429  -0.1065   0.7386   1.0000
   0.600   0.5492   0.01021   0.00425  -0.1063   0.7339   1.0000
   0.700   0.5598   0.01026   0.00424  -0.1061   0.7289   1.0000
   0.800   0.5697   0.01031   0.00426  -0.1059   0.7230   1.0000
   0.900   0.5804   0.01035   0.00424  -0.1057   0.7182   1.0000
   1.000   0.5911   0.01040   0.00423  -0.1055   0.7135   1.0000
   1.100   0.6010   0.01045   0.00426  -0.1053   0.7077   1.0000
   1.200   0.6116   0.01050   0.00426  -0.1051   0.7028   1.0000
   1.300   0.6227   0.01056   0.00424  -0.1050   0.6987   1.0000
   1.400   0.6325   0.01062   0.00429  -0.1047   0.6928   1.0000
   1.500   0.6429   0.01068   0.00431  -0.1045   0.6878   1.0000
   1.600   0.6540   0.01074   0.00430  -0.1044   0.6837   1.0000
   1.700   0.6641   0.01081   0.00435  -0.1042   0.6785   1.0000
   1.800   0.6743   0.01087   0.00438  -0.1040   0.6735   1.0000
   1.900   0.6851   0.01094   0.00439  -0.1039   0.6692   1.0000
   2.000   0.6959   0.01101   0.00442  -0.1037   0.6650   1.0000
   2.100   0.7059   0.01108   0.00449  -0.1035   0.6598   1.0000
   2.200   0.7164   0.01115   0.00452  -0.1033   0.6553   1.0000
   2.300   0.7275   0.01123   0.00453  -0.1033   0.6516   1.0000
   2.400   0.7377   0.01131   0.00460  -0.1031   0.6471   1.0000
   2.500   0.7480   0.01138   0.00466  -0.1029   0.6423   1.0000
   2.600   0.7586   0.01145   0.00470  -0.1027   0.6382   1.0000
   2.700   0.7697   0.01154   0.00473  -0.1027   0.6348   1.0000
   2.800   0.7798   0.01162   0.00481  -0.1025   0.6303   1.0000
   2.900   0.7901   0.01170   0.00488  -0.1023   0.6259   1.0000
   3.000   0.8007   0.01178   0.00493  -0.1022   0.6220   1.0000
   3.100   0.8119   0.01187   0.00496  -0.1021   0.6186   1.0000
   3.200   0.8220   0.01196   0.00505  -0.1019   0.6144   1.0000
   3.300   0.8322   0.01204   0.00513  -0.1018   0.6102   1.0000
   3.400   0.8428   0.01212   0.00519  -0.1016   0.6064   1.0000
   3.500   0.8538   0.01222   0.00525  -0.1016   0.6031   1.0000
   3.600   0.8642   0.01231   0.00533  -0.1014   0.5994   1.0000
   3.700   0.8743   0.01239   0.00543  -0.1012   0.5952   1.0000
   3.800   0.8848   0.01248   0.00550  -0.1011   0.5915   1.0000
   3.900   0.8956   0.01257   0.00556  -0.1010   0.5881   1.0000
   4.000   0.9066   0.01268   0.00563  -0.1009   0.5849   1.0000
   4.100   0.9164   0.01277   0.00575  -0.1007   0.5808   1.0000
   4.200   0.9267   0.01285   0.00584  -0.1005   0.5769   1.0000
   4.300   0.9372   0.01294   0.00591  -0.1004   0.5734   1.0000
   4.400   0.9483   0.01305   0.00598  -0.1004   0.5703   1.0000
   4.500   0.9584   0.01315   0.00609  -0.1002   0.5666   1.0000
   4.600   0.9684   0.01324   0.00620  -0.1000   0.5626   1.0000
   4.700   0.9787   0.01333   0.00629  -0.0998   0.5589   1.0000
   4.800   0.9894   0.01343   0.00636  -0.0997   0.5556   1.0000
   4.900   1.0003   0.01355   0.00644  -0.0996   0.5524   1.0000
   5.000   1.0098   0.01363   0.00658  -0.0993   0.5482   1.0000
   5.100   1.0199   0.01372   0.00669  -0.0991   0.5443   1.0000
   5.200   1.0303   0.01382   0.00676  -0.0990   0.5407   1.0000
   5.300   1.0413   0.01394   0.00684  -0.0989   0.5375   1.0000
   5.400   1.0508   0.01403   0.00697  -0.0986   0.5334   1.0000
   5.500   1.0606   0.01412   0.00709  -0.0984   0.5292   1.0000
   5.600   1.0707   0.01421   0.00717  -0.0982   0.5253   1.0000
   5.700   1.0815   0.01432   0.00724  -0.0981   0.5217   1.0000
   5.800   1.0910   0.01442   0.00738  -0.0978   0.5175   1.0000
   5.900   1.1004   0.01450   0.00749  -0.0974   0.5128   1.0000
   6.000   1.1103   0.01458   0.00756  -0.0972   0.5085   1.0000
   6.100   1.1210   0.01471   0.00762  -0.0971   0.5046   1.0000
   6.200   1.1295   0.01478   0.00776  -0.0966   0.4994   1.0000
   6.300   1.1388   0.01485   0.00785  -0.0962   0.4943   1.0000
   6.400   1.1488   0.01495   0.00790  -0.0960   0.4898   1.0000
   6.500   1.1577   0.01504   0.00802  -0.0956   0.4847   1.0000
   6.600   1.1666   0.01511   0.00813  -0.0951   0.4792   1.0000
   6.700   1.1761   0.01520   0.00820  -0.0948   0.4745   1.0000
   6.800   1.1853   0.01531   0.00831  -0.0944   0.4695   1.0000
   6.900   1.1939   0.01538   0.00843  -0.0940   0.4639   1.0000
   7.000   1.2031   0.01548   0.00850  -0.0936   0.4590   1.0000
   7.100   1.2123   0.01559   0.00861  -0.0932   0.4540   1.0000
   7.200   1.2206   0.01567   0.00874  -0.0927   0.4482   1.0000
   7.300   1.2295   0.01577   0.00883  -0.0923   0.4430   1.0000
   7.400   1.2383   0.01588   0.00894  -0.0919   0.4378   1.0000
   7.500   1.2466   0.01596   0.00908  -0.0913   0.4317   1.0000
   7.600   1.2551   0.01607   0.00918  -0.0909   0.4262   1.0000
   7.700   1.2634   0.01618   0.00931  -0.0904   0.4203   1.0000
   7.800   1.2715   0.01628   0.00944  -0.0898   0.4139   1.0000
   7.900   1.2796   0.01641   0.00953  -0.0893   0.4083   1.0000
   8.000   1.2875   0.01650   0.00969  -0.0887   0.4011   1.0000
   8.100   1.2951   0.01663   0.00980  -0.0881   0.3944   1.0000
   8.200   1.3028   0.01674   0.00995  -0.0875   0.3873   1.0000
   8.300   1.3100   0.01687   0.01009  -0.0868   0.3798   1.0000
   8.400   1.3173   0.01701   0.01024  -0.0861   0.3721   1.0000
   8.500   1.3240   0.01717   0.01039  -0.0854   0.3639   1.0000
   8.600   1.3308   0.01732   0.01055  -0.0846   0.3552   1.0000
   8.700   1.3367   0.01752   0.01072  -0.0837   0.3465   1.0000
   8.800   1.3431   0.01770   0.01091  -0.0830   0.3364   1.0000
   8.900   1.3486   0.01793   0.01111  -0.0820   0.3266   1.0000
   9.000   1.3534   0.01818   0.01132  -0.0810   0.3160   1.0000
   9.100   1.3584   0.01843   0.01155  -0.0800   0.3042   1.0000
   9.200   1.3626   0.01872   0.01181  -0.0789   0.2922   1.0000
   9.300   1.3659   0.01904   0.01209  -0.0777   0.2801   1.0000
   9.400   1.3678   0.01939   0.01238  -0.0762   0.2679   1.0000
   9.500   1.3694   0.01978   0.01270  -0.0747   0.2550   1.0000
   9.600   1.3710   0.02020   0.01306  -0.0733   0.2411   1.0000
   9.700   1.3721   0.02066   0.01346  -0.0718   0.2269   1.0000
   9.800   1.3726   0.02118   0.01389  -0.0704   0.2125   1.0000
   9.900   1.3728   0.02174   0.01437  -0.0689   0.1981   1.0000
  10.000   1.3726   0.02234   0.01489  -0.0674   0.1841   1.0000
  10.100   1.3722   0.02298   0.01545  -0.0659   0.1706   1.0000
  10.200   1.3716   0.02364   0.01604  -0.0645   0.1580   1.0000
  10.300   1.3709   0.02434   0.01667  -0.0631   0.1468   1.0000
  10.400   1.3697   0.02509   0.01734  -0.0616   0.1373   1.0000
  10.500   1.3693   0.02580   0.01801  -0.0604   0.1282   1.0000
  10.600   1.3690   0.02653   0.01870  -0.0591   0.1207   1.0000
  10.700   1.3681   0.02732   0.01943  -0.0579   0.1142   1.0000
  10.800   1.3681   0.02806   0.02017  -0.0568   0.1084   1.0000
  10.900   1.3680   0.02882   0.02091  -0.0557   0.1032   1.0000
  11.100   1.3678   0.03040   0.02247  -0.0536   0.0948   1.0000
  11.200   1.3680   0.03119   0.02325  -0.0527   0.0912   1.0000
  11.300   1.3663   0.03214   0.02417  -0.0517   0.0884   1.0000
  11.400   1.3664   0.03298   0.02502  -0.0508   0.0855   1.0000
  11.500   1.3681   0.03370   0.02578  -0.0501   0.0826   1.0000
  11.600   1.3688   0.03451   0.02660  -0.0493   0.0800   1.0000
  11.700   1.3678   0.03546   0.02754  -0.0485   0.0780   1.0000
  11.800   1.3650   0.03660   0.02865  -0.0476   0.0761   1.0000
  11.900   1.3671   0.03734   0.02944  -0.0470   0.0741   1.0000
  12.000   1.3689   0.03811   0.03026  -0.0464   0.0721   1.0000
  12.100   1.3699   0.03895   0.03113  -0.0459   0.0702   1.0000
  12.200   1.3705   0.03985   0.03203  -0.0453   0.0687   1.0000
  12.300   1.3698   0.04086   0.03304  -0.0447   0.0673   1.0000
  12.400   1.3677   0.04201   0.03416  -0.0439   0.0660   1.0000
  12.500   1.3682   0.04294   0.03513  -0.0433   0.0647   1.0000
  12.600   1.3705   0.04373   0.03598  -0.0429   0.0633   1.0000
  12.700   1.3721   0.04458   0.03688  -0.0424   0.0620   1.0000
  12.800   1.3734   0.04546   0.03778  -0.0420   0.0607   1.0000
  12.900   1.3744   0.04637   0.03871  -0.0416   0.0595   1.0000
  13.000   1.3751   0.04732   0.03967  -0.0412   0.0585   1.0000
  13.100   1.3752   0.04832   0.04066  -0.0407   0.0574   1.0000
  13.200   1.3747   0.04935   0.04165  -0.0400   0.0564   1.0000
  13.300   1.3762   0.05024   0.04256  -0.0395   0.0555   1.0000
  13.400   1.3783   0.05109   0.04349  -0.0391   0.0546   1.0000
  13.500   1.3801   0.05196   0.04442  -0.0388   0.0537   1.0000
  13.600   1.3819   0.05284   0.04534  -0.0384   0.0528   1.0000
  13.700   1.3837   0.05372   0.04625  -0.0381   0.0519   1.0000
  13.800   1.3854   0.05462   0.04717  -0.0377   0.0511   1.0000
  13.900   1.3870   0.05552   0.04808  -0.0374   0.0503   1.0000
  14.000   1.3887   0.05641   0.04898  -0.0371   0.0495   1.0000
  14.100   1.3907   0.05725   0.04980  -0.0366   0.0488   1.0000
  14.200   1.3948   0.05783   0.05030  -0.0357   0.0477   1.0000
  14.300   1.3965   0.05877   0.05131  -0.0354   0.0472   1.0000
  14.400   1.3980   0.05973   0.05235  -0.0352   0.0466   1.0000
  14.500   1.3995   0.06069   0.05338  -0.0350   0.0459   1.0000
  14.600   1.4012   0.06165   0.05440  -0.0347   0.0453   1.0000
  14.700   1.4030   0.06259   0.05538  -0.0345   0.0446   1.0000
  14.800   1.4049   0.06351   0.05635  -0.0342   0.0440   1.0000
  14.900   1.4070   0.06442   0.05729  -0.0339   0.0435   1.0000
  15.000   1.4092   0.06531   0.05820  -0.0337   0.0429   1.0000
