  
       XFOIL         Version 6.97
  
 Calculated polar for: NACA 4412                                       
  
 1 1 Reynolds number fixed          Mach number fixed         
  
 xtrf =   1.000 (top)        1.000 (bottom)  
 Mach =   0.000     Re =     0.350 e 6     Ncrit =   9.000
  
   alpha    CL        CD       CDp       CM     Top_Xtr  Bot_Xtr
  ------ -------- --------- --------- -------- -------- --------
 -15.000  -0.4178   0.16956   0.16644  -0.0209   1.0000   0.0281
 -14.900  -0.4225   0.16743   0.16432  -0.0238   1.0000   0.0289
 -14.800  -0.4272   0.16587   0.16277  -0.0260   1.0000   0.0290
 -14.700  -0.4264   0.16412   0.16104  -0.0268   1.0000   0.0291
 -14.600  -0.4185   0.16254   0.15945  -0.0261   1.0000   0.0292
 -14.500  -0.4126   0.16132   0.15823  -0.0258   1.0000   0.0293
 -14.400  -0.4079   0.16021   0.15712  -0.0258   1.0000   0.0294
 -14.300  -0.4038   0.15913   0.15604  -0.0259   1.0000   0.0296
 -14.200  -0.4002   0.15804   0.15494  -0.0262   1.0000   0.0297
 -14.100  -0.3967   0.15694   0.15385  -0.0265   1.0000   0.0299
 -14.000  -0.3935   0.15583   0.15274  -0.0268   1.0000   0.0301
 -13.900  -0.3905   0.15469   0.15160  -0.0272   1.0000   0.0303
 -13.800  -0.3876   0.15352   0.15044  -0.0276   1.0000   0.0306
 -13.700  -0.3848   0.15232   0.14924  -0.0281   1.0000   0.0309
 -13.600  -0.3822   0.15108   0.14801  -0.0286   1.0000   0.0312
 -13.500  -0.3798   0.14980   0.14673  -0.0291   1.0000   0.0316
 -13.400  -0.3775   0.14847   0.14540  -0.0296   1.0000   0.0320
 -13.300  -0.3756   0.14706   0.14399  -0.0303   1.0000   0.0325
 -13.200  -0.3754   0.14533   0.14227  -0.0314   1.0000   0.0333
 -13.100  -0.3857   0.14295   0.13991  -0.0348   1.0000   0.0339
 -13.000  -0.3888   0.14102   0.13798  -0.0365   1.0000   0.0340
 -12.900  -0.3898   0.13912   0.13609  -0.0377   1.0000   0.0340
 -12.800  -0.3857   0.13750   0.13448  -0.0372   1.0000   0.0342
 -12.700  -0.3800   0.13637   0.13335  -0.0368   1.0000   0.0343
 -12.600  -0.3739   0.13535   0.13233  -0.0363   1.0000   0.0345
 -12.500  -0.3691   0.13436   0.13134  -0.0362   1.0000   0.0346
 -12.400  -0.3650   0.13336   0.13034  -0.0361   1.0000   0.0348
 -12.300  -0.3615   0.13235   0.12933  -0.0362   1.0000   0.0350
 -12.200  -0.3583   0.13130   0.12829  -0.0364   1.0000   0.0352
 -12.100  -0.3554   0.13026   0.12725  -0.0366   1.0000   0.0355
 -12.000  -0.3527   0.12918   0.12618  -0.0368   1.0000   0.0358
 -11.900  -0.3503   0.12807   0.12507  -0.0371   1.0000   0.0363
 -11.800  -0.3482   0.12689   0.12389  -0.0375   1.0000   0.0368
 -11.700  -0.3466   0.12562   0.12263  -0.0379   1.0000   0.0373
 -11.600  -0.3458   0.12421   0.12123  -0.0385   1.0000   0.0380
 -11.500  -0.3576   0.12136   0.11840  -0.0419   1.0000   0.0394
 -11.400  -0.3647   0.11879   0.11585  -0.0444   1.0000   0.0397
 -11.300  -0.3683   0.11669   0.11377  -0.0457   1.0000   0.0397
 -11.200  -0.3676   0.11483   0.11192  -0.0456   1.0000   0.0399
 -11.100  -0.3637   0.11379   0.11088  -0.0449   1.0000   0.0401
 -11.000  -0.3599   0.11293   0.11002  -0.0444   1.0000   0.0402
 -10.900  -0.3562   0.11211   0.10921  -0.0440   1.0000   0.0404
 -10.800  -0.3528   0.11130   0.10841  -0.0436   1.0000   0.0406
 -10.700  -0.3495   0.11048   0.10759  -0.0433   1.0000   0.0408
 -10.600  -0.3469   0.10961   0.10673  -0.0430   1.0000   0.0410
 -10.500  -0.3448   0.10871   0.10584  -0.0428   1.0000   0.0412
 -10.400  -0.3433   0.10777   0.10491  -0.0427   1.0000   0.0415
 -10.300  -0.3422   0.10680   0.10395  -0.0426   1.0000   0.0418
 -10.200  -0.3417   0.10579   0.10295  -0.0425   1.0000   0.0421
 -10.100  -0.3417   0.10476   0.10193  -0.0424   1.0000   0.0425
 -10.000  -0.3423   0.10370   0.10089  -0.0423   1.0000   0.0428
  -9.900  -0.3435   0.10262   0.09982  -0.0422   1.0000   0.0433
  -9.800  -0.3455   0.10150   0.09872  -0.0421   1.0000   0.0437
  -9.700  -0.3487   0.10031   0.09755  -0.0420   1.0000   0.0443
  -9.600  -0.3551   0.09886   0.09612  -0.0422   1.0000   0.0451
  -9.500  -0.3816   0.09566   0.09298  -0.0444   1.0000   0.0462
  -9.400  -0.3924   0.09413   0.09148  -0.0444   1.0000   0.0463
  -9.300  -0.4026   0.09275   0.09013  -0.0440   1.0000   0.0463
  -9.200  -0.4108   0.09164   0.08904  -0.0433   1.0000   0.0463
  -9.100  -0.4193   0.09058   0.08801  -0.0426   1.0000   0.0464
  -9.000  -0.4238   0.08856   0.08601  -0.0438   0.9994   0.0464
  -8.900  -0.4758   0.06986   0.06732  -0.0550   0.9939   0.0344
  -8.800  -0.4669   0.06729   0.06474  -0.0595   0.9923   0.0346
  -8.700  -0.4595   0.06485   0.06229  -0.0634   0.9898   0.0347
  -8.600  -0.4517   0.06257   0.05998  -0.0672   0.9874   0.0349
  -8.500  -0.4424   0.06049   0.05789  -0.0708   0.9854   0.0352
  -8.400  -0.4315   0.05898   0.05634  -0.0736   0.9839   0.0357
  -8.300  -0.4188   0.05839   0.05574  -0.0754   0.9829   0.0363
  -8.200  -0.4813   0.02502   0.01969  -0.0955   0.9703   0.0335
  -8.100  -0.4673   0.02429   0.01874  -0.0965   0.9695   0.0339
  -8.000  -0.4545   0.02305   0.01735  -0.0975   0.9689   0.0344
  -7.900  -0.4404   0.02231   0.01659  -0.0985   0.9684   0.0349
  -7.800  -0.4339   0.02198   0.01625  -0.0978   0.9643   0.0352
  -7.700  -0.4212   0.02168   0.01594  -0.0983   0.9625   0.0357
  -7.600  -0.4074   0.02137   0.01560  -0.0990   0.9611   0.0363
  -7.500  -0.3929   0.02104   0.01523  -0.0998   0.9599   0.0370
  -7.400  -0.3780   0.02063   0.01475  -0.1007   0.9589   0.0378
  -7.300  -0.3628   0.02019   0.01420  -0.1017   0.9580   0.0386
  -7.200  -0.3471   0.01976   0.01365  -0.1027   0.9573   0.0393
  -7.100  -0.3310   0.01943   0.01320  -0.1038   0.9566   0.0398
  -7.000  -0.3170   0.01844   0.01218  -0.1047   0.9559   0.0406
  -6.900  -0.3019   0.01804   0.01178  -0.1057   0.9552   0.0414
  -6.800  -0.2866   0.01774   0.01148  -0.1066   0.9546   0.0421
  -6.700  -0.2792   0.01754   0.01126  -0.1058   0.9505   0.0427
  -6.600  -0.2673   0.01730   0.01099  -0.1060   0.9482   0.0436
  -6.500  -0.2543   0.01705   0.01069  -0.1064   0.9465   0.0445
  -6.400  -0.2407   0.01681   0.01039  -0.1069   0.9450   0.0455
  -6.300  -0.2267   0.01663   0.01013  -0.1074   0.9437   0.0463
  -6.200  -0.2141   0.01597   0.00946  -0.1079   0.9425   0.0475
  -6.100  -0.2006   0.01566   0.00917  -0.1084   0.9413   0.0485
  -6.000  -0.1868   0.01542   0.00894  -0.1090   0.9403   0.0496
  -5.900  -0.1748   0.01522   0.00872  -0.1091   0.9384   0.0506
  -5.800  -0.1661   0.01506   0.00852  -0.1086   0.9345   0.0516
  -5.700  -0.1547   0.01487   0.00830  -0.1086   0.9320   0.0528
  -5.600  -0.1424   0.01474   0.00811  -0.1087   0.9299   0.0539
  -5.500  -0.1308   0.01427   0.00764  -0.1089   0.9281   0.0555
  -5.400  -0.1183   0.01402   0.00742  -0.1091   0.9265   0.0569
  -5.300  -0.1055   0.01385   0.00724  -0.1094   0.9250   0.0584
  -5.200  -0.0941   0.01370   0.00708  -0.1094   0.9228   0.0600
  -5.100  -0.0848   0.01357   0.00692  -0.1090   0.9190   0.0614
  -5.000  -0.0738   0.01345   0.00675  -0.1089   0.9161   0.0627
  -4.900  -0.0628   0.01309   0.00641  -0.1088   0.9137   0.0647
  -4.800  -0.0511   0.01288   0.00622  -0.1089   0.9115   0.0667
  -4.700  -0.0389   0.01274   0.00607  -0.1091   0.9096   0.0688
  -4.600  -0.0277   0.01262   0.00593  -0.1090   0.9070   0.0709
  -4.500  -0.0178   0.01254   0.00582  -0.1086   0.9030   0.0727
  -4.400  -0.0074   0.01226   0.00555  -0.1085   0.8997   0.0752
  -4.300   0.0038   0.01208   0.00538  -0.1084   0.8969   0.0778
  -4.200   0.0155   0.01195   0.00525  -0.1084   0.8944   0.0806
  -4.100   0.0275   0.01185   0.00511  -0.1085   0.8923   0.0834
  -4.000   0.0371   0.01172   0.00497  -0.1081   0.8879   0.0861
  -3.900   0.0475   0.01153   0.00482  -0.1080   0.8843   0.0897
  -3.800   0.0587   0.01142   0.00471  -0.1079   0.8812   0.0931
  -3.700   0.0704   0.01133   0.00458  -0.1079   0.8785   0.0966
  -3.600   0.0816   0.01115   0.00441  -0.1079   0.8757   0.1010
  -3.500   0.0917   0.01105   0.00434  -0.1076   0.8712   0.1052
  -3.400   0.1026   0.01097   0.00424  -0.1075   0.8673   0.1096
  -3.300   0.1137   0.01083   0.00410  -0.1074   0.8640   0.1146
  -3.200   0.1252   0.01071   0.00399  -0.1074   0.8611   0.1201
  -3.100   0.1358   0.01066   0.00392  -0.1072   0.8568   0.1254
  -3.000   0.1463   0.01052   0.00383  -0.1071   0.8524   0.1316
  -2.900   0.1574   0.01044   0.00374  -0.1070   0.8487   0.1382
  -2.800   0.1688   0.01034   0.00363  -0.1070   0.8455   0.1452
  -2.700   0.1796   0.01025   0.00357  -0.1068   0.8413   0.1527
  -2.600   0.1903   0.01018   0.00351  -0.1067   0.8367   0.1603
  -2.500   0.2012   0.01009   0.00344  -0.1066   0.8326   0.1689
  -2.400   0.2126   0.01001   0.00335  -0.1066   0.8291   0.1777
  -2.300   0.2233   0.00994   0.00331  -0.1064   0.8244   0.1873
  -2.200   0.2340   0.00986   0.00326  -0.1063   0.8196   0.1970
  -2.100   0.2451   0.00980   0.00319  -0.1062   0.8154   0.2074
  -2.000   0.2563   0.00973   0.00313  -0.1062   0.8116   0.2188
  -1.900   0.2668   0.00966   0.00311  -0.1061   0.8064   0.2301
  -1.800   0.2777   0.00960   0.00306  -0.1060   0.8016   0.2423
  -1.700   0.2889   0.00954   0.00301  -0.1059   0.7975   0.2556
  -1.600   0.2996   0.00947   0.00298  -0.1058   0.7927   0.2692
  -1.500   0.3103   0.00940   0.00294  -0.1057   0.7874   0.2837
  -1.400   0.3212   0.00934   0.00290  -0.1056   0.7828   0.2994
  -1.300   0.3321   0.00927   0.00286  -0.1055   0.7782   0.3163
  -1.200   0.3427   0.00920   0.00284  -0.1054   0.7727   0.3348
  -1.100   0.3534   0.00912   0.00281  -0.1053   0.7677   0.3560
  -1.000   0.3641   0.00903   0.00277  -0.1052   0.7634   0.3810
  -0.900   0.3744   0.00890   0.00276  -0.1050   0.7576   0.4137
  -0.800   0.3844   0.00873   0.00275  -0.1048   0.7524   0.4647
  -0.700   0.3942   0.00854   0.00274  -0.1046   0.7479   0.5339
  -0.600   0.4033   0.00834   0.00277  -0.1042   0.7422   0.6050
  -0.500   0.4121   0.00815   0.00279  -0.1036   0.7368   0.6724
  -0.400   0.4205   0.00799   0.00281  -0.1028   0.7322   0.7378
  -0.300   0.4278   0.00782   0.00285  -0.1017   0.7267   0.8031
  -0.200   0.4353   0.00770   0.00288  -0.1005   0.7214   0.8688
  -0.100   0.4509   0.00765   0.00287  -0.1010   0.7165   0.9328
   0.000   0.4738   0.00764   0.00284  -0.1034   0.7107   0.9743
   0.100   0.4962   0.00766   0.00280  -0.1058   0.7047   0.9968
   0.200   0.5089   0.00771   0.00278  -0.1061   0.6996   1.0000
   0.300   0.5189   0.00774   0.00278  -0.1059   0.6939   1.0000
   0.400   0.5290   0.00778   0.00277  -0.1056   0.6883   1.0000
   0.500   0.5391   0.00784   0.00276  -0.1054   0.6834   1.0000
   0.600   0.5493   0.00787   0.00277  -0.1051   0.6777   1.0000
   0.700   0.5594   0.00792   0.00277  -0.1049   0.6721   1.0000
   0.800   0.5697   0.00798   0.00277  -0.1047   0.6673   1.0000
   0.900   0.5799   0.00802   0.00278  -0.1045   0.6618   1.0000
   1.000   0.5902   0.00807   0.00279  -0.1043   0.6564   1.0000
   1.100   0.6004   0.00814   0.00280  -0.1040   0.6517   1.0000
   1.200   0.6108   0.00819   0.00282  -0.1039   0.6466   1.0000
   1.300   0.6211   0.00824   0.00284  -0.1037   0.6413   1.0000
   1.400   0.6314   0.00831   0.00285  -0.1035   0.6366   1.0000
   1.500   0.6418   0.00837   0.00287  -0.1033   0.6320   1.0000
   1.600   0.6522   0.00841   0.00290  -0.1031   0.6269   1.0000
   1.700   0.6626   0.00848   0.00292  -0.1030   0.6222   1.0000
   1.900   0.6835   0.00860   0.00298  -0.1026   0.6133   1.0000
   2.000   0.6939   0.00866   0.00301  -0.1025   0.6087   1.0000
   2.100   0.7043   0.00873   0.00304  -0.1023   0.6045   1.0000
   2.200   0.7148   0.00881   0.00307  -0.1022   0.6007   1.0000
   2.300   0.7254   0.00885   0.00311  -0.1020   0.5962   1.0000
   2.400   0.7359   0.00891   0.00315  -0.1019   0.5919   1.0000
   2.500   0.7463   0.00899   0.00318  -0.1017   0.5880   1.0000
   2.600   0.7568   0.00907   0.00323  -0.1016   0.5844   1.0000
   2.700   0.7674   0.00912   0.00328  -0.1015   0.5802   1.0000
   2.800   0.7779   0.00918   0.00332  -0.1013   0.5762   1.0000
   2.900   0.7884   0.00926   0.00336  -0.1012   0.5726   1.0000
   3.000   0.7989   0.00935   0.00341  -0.1011   0.5693   1.0000
   3.100   0.8096   0.00940   0.00347  -0.1010   0.5654   1.0000
   3.200   0.8201   0.00945   0.00352  -0.1008   0.5616   1.0000
   3.300   0.8306   0.00953   0.00357  -0.1007   0.5580   1.0000
   3.400   0.8411   0.00962   0.00362  -0.1006   0.5547   1.0000
   3.500   0.8517   0.00969   0.00368  -0.1005   0.5514   1.0000
   3.600   0.8623   0.00974   0.00374  -0.1003   0.5477   1.0000
   3.700   0.8728   0.00981   0.00380  -0.1002   0.5442   1.0000
   3.800   0.8833   0.00989   0.00385  -0.1001   0.5408   1.0000
   3.900   0.8938   0.00999   0.00391  -0.1000   0.5378   1.0000
   4.000   0.9044   0.01005   0.00398  -0.0999   0.5344   1.0000
   4.100   0.9149   0.01011   0.00405  -0.0997   0.5308   1.0000
   4.200   0.9253   0.01017   0.00411  -0.0996   0.5274   1.0000
   4.300   0.9358   0.01026   0.00418  -0.0995   0.5241   1.0000
   4.400   0.9463   0.01037   0.00424  -0.0993   0.5211   1.0000
   4.500   0.9567   0.01042   0.00432  -0.0992   0.5177   1.0000
   4.600   0.9671   0.01048   0.00439  -0.0991   0.5141   1.0000
   4.700   0.9775   0.01055   0.00446  -0.0989   0.5107   1.0000
   4.800   0.9878   0.01064   0.00452  -0.0988   0.5074   1.0000
   4.900   0.9982   0.01076   0.00460  -0.0986   0.5042   1.0000
   5.000   1.0086   0.01080   0.00468  -0.0985   0.5006   1.0000
   5.100   1.0188   0.01086   0.00476  -0.0983   0.4968   1.0000
   5.200   1.0290   0.01094   0.00483  -0.0981   0.4931   1.0000
   5.300   1.0391   0.01105   0.00490  -0.0980   0.4896   1.0000
   5.400   1.0493   0.01112   0.00499  -0.0978   0.4858   1.0000
   5.500   1.0594   0.01118   0.00506  -0.0976   0.4816   1.0000
   5.600   1.0693   0.01125   0.00513  -0.0974   0.4773   1.0000
   5.700   1.0792   0.01137   0.00520  -0.0971   0.4732   1.0000
   5.800   1.0891   0.01143   0.00530  -0.0969   0.4687   1.0000
   5.900   1.0990   0.01149   0.00537  -0.0966   0.4639   1.0000
   6.000   1.1086   0.01158   0.00544  -0.0964   0.4593   1.0000
   6.100   1.1183   0.01169   0.00553  -0.0961   0.4549   1.0000
   6.200   1.1282   0.01174   0.00561  -0.0959   0.4500   1.0000
   6.300   1.1378   0.01182   0.00569  -0.0956   0.4451   1.0000
   6.400   1.1472   0.01194   0.00578  -0.0953   0.4408   1.0000
   6.500   1.1570   0.01200   0.00587  -0.0951   0.4360   1.0000
   6.600   1.1667   0.01208   0.00596  -0.0948   0.4309   1.0000
   6.700   1.1760   0.01219   0.00605  -0.0945   0.4262   1.0000
   6.800   1.1855   0.01228   0.00615  -0.0942   0.4214   1.0000
   6.900   1.1951   0.01235   0.00624  -0.0939   0.4159   1.0000
   7.000   1.2042   0.01246   0.00634  -0.0936   0.4107   1.0000
   7.100   1.2135   0.01256   0.00644  -0.0933   0.4056   1.0000
   7.200   1.2230   0.01264   0.00654  -0.0930   0.3995   1.0000
   7.300   1.2317   0.01276   0.00664  -0.0925   0.3937   1.0000
   7.400   1.2410   0.01286   0.00676  -0.0922   0.3876   1.0000
   7.500   1.2499   0.01297   0.00687  -0.0918   0.3808   1.0000
   7.600   1.2585   0.01310   0.00698  -0.0914   0.3743   1.0000
   7.700   1.2672   0.01321   0.00710  -0.0910   0.3667   1.0000
   7.800   1.2754   0.01337   0.00722  -0.0905   0.3593   1.0000
   7.900   1.2838   0.01350   0.00736  -0.0901   0.3510   1.0000
   8.000   1.2917   0.01367   0.00750  -0.0895   0.3428   1.0000
   8.100   1.2994   0.01385   0.00765  -0.0890   0.3334   1.0000
   8.200   1.3071   0.01403   0.00781  -0.0884   0.3239   1.0000
   8.300   1.3139   0.01426   0.00799  -0.0877   0.3141   1.0000
   8.400   1.3211   0.01447   0.00817  -0.0871   0.3033   1.0000
   8.500   1.3279   0.01470   0.00836  -0.0864   0.2923   1.0000
   8.600   1.3340   0.01497   0.00858  -0.0856   0.2809   1.0000
   8.700   1.3396   0.01526   0.00881  -0.0848   0.2687   1.0000
   8.800   1.3451   0.01556   0.00905  -0.0839   0.2559   1.0000
   8.900   1.3504   0.01587   0.00930  -0.0830   0.2428   1.0000
   9.000   1.3549   0.01620   0.00957  -0.0820   0.2298   1.0000
   9.100   1.3586   0.01655   0.00985  -0.0808   0.2168   1.0000
   9.200   1.3620   0.01692   0.01015  -0.0796   0.2038   1.0000
   9.300   1.3651   0.01732   0.01049  -0.0784   0.1907   1.0000
   9.400   1.3680   0.01775   0.01084  -0.0771   0.1778   1.0000
   9.500   1.3706   0.01820   0.01121  -0.0759   0.1651   1.0000
   9.700   1.3759   0.01911   0.01199  -0.0735   0.1413   1.0000
   9.800   1.3786   0.01957   0.01240  -0.0724   0.1307   1.0000
   9.900   1.3809   0.02006   0.01283  -0.0712   0.1212   1.0000
  10.100   1.3859   0.02104   0.01372  -0.0689   0.1044   1.0000
  10.200   1.3879   0.02156   0.01420  -0.0678   0.0977   1.0000
  10.300   1.3908   0.02204   0.01465  -0.0667   0.0915   1.0000
  10.400   1.3927   0.02259   0.01517  -0.0656   0.0864   1.0000
  10.500   1.3961   0.02304   0.01563  -0.0647   0.0817   1.0000
  10.600   1.3979   0.02361   0.01617  -0.0636   0.0777   1.0000
  10.700   1.4005   0.02414   0.01669  -0.0627   0.0742   1.0000
  10.800   1.4039   0.02462   0.01718  -0.0618   0.0710   1.0000
  10.900   1.4058   0.02520   0.01775  -0.0608   0.0681   1.0000
  11.000   1.4059   0.02592   0.01846  -0.0597   0.0655   1.0000
  11.100   1.4103   0.02635   0.01892  -0.0590   0.0633   1.0000
  11.200   1.4136   0.02687   0.01946  -0.0582   0.0611   1.0000
  11.300   1.4156   0.02748   0.02007  -0.0574   0.0592   1.0000
  11.400   1.4163   0.02821   0.02079  -0.0565   0.0574   1.0000
  11.500   1.4161   0.02901   0.02160  -0.0555   0.0557   1.0000
  11.600   1.4202   0.02950   0.02214  -0.0549   0.0543   1.0000
  11.700   1.4233   0.03008   0.02276  -0.0542   0.0529   1.0000
  11.800   1.4257   0.03072   0.02341  -0.0536   0.0515   1.0000
  11.900   1.4273   0.03144   0.02415  -0.0528   0.0503   1.0000
  12.000   1.4276   0.03227   0.02499  -0.0521   0.0492   1.0000
  12.100   1.4259   0.03328   0.02601  -0.0512   0.0481   1.0000
  12.200   1.4264   0.03413   0.02689  -0.0505   0.0472   1.0000
  12.300   1.4296   0.03476   0.02757  -0.0500   0.0463   1.0000
  12.400   1.4322   0.03546   0.02830  -0.0495   0.0453   1.0000
  12.500   1.4343   0.03620   0.02908  -0.0490   0.0444   1.0000
  12.600   1.4361   0.03698   0.02988  -0.0485   0.0436   1.0000
  12.700   1.4372   0.03783   0.03075  -0.0480   0.0428   1.0000
  12.800   1.4373   0.03878   0.03172  -0.0475   0.0420   1.0000
  12.900   1.4360   0.03988   0.03283  -0.0469   0.0414   1.0000
  13.000   1.4329   0.04117   0.03413  -0.0463   0.0407   1.0000
  13.100   1.4323   0.04223   0.03523  -0.0458   0.0401   1.0000
  13.200   1.4348   0.04302   0.03607  -0.0455   0.0395   1.0000
  13.300   1.4366   0.04388   0.03698  -0.0452   0.0389   1.0000
  13.400   1.4378   0.04480   0.03794  -0.0448   0.0384   1.0000
  13.500   1.4387   0.04575   0.03893  -0.0445   0.0378   1.0000
  13.600   1.4395   0.04673   0.03995  -0.0442   0.0373   1.0000
  13.700   1.4402   0.04774   0.04099  -0.0439   0.0367   1.0000
  13.800   1.4406   0.04878   0.04205  -0.0437   0.0363   1.0000
  13.900   1.4407   0.04988   0.04317  -0.0434   0.0358   1.0000
  14.000   1.4400   0.05106   0.04437  -0.0432   0.0354   1.0000
  14.100   1.4384   0.05234   0.04566  -0.0429   0.0349   1.0000
  14.200   1.4358   0.05371   0.04704  -0.0426   0.0345   1.0000
  14.300   1.4323   0.05515   0.04849  -0.0422   0.0341   1.0000
  14.400   1.4343   0.05610   0.04950  -0.0421   0.0337   1.0000
  14.500   1.4357   0.05712   0.05058  -0.0420   0.0333   1.0000
  14.600   1.4368   0.05818   0.05168  -0.0419   0.0329   1.0000
  14.700   1.4376   0.05926   0.05281  -0.0418   0.0325   1.0000
  14.800   1.4383   0.06038   0.05397  -0.0417   0.0321   1.0000
  14.900   1.4389   0.06150   0.05513  -0.0416   0.0317   1.0000
  15.000   1.4393   0.06265   0.05631  -0.0416   0.0313   1.0000
