  
       XFOIL         Version 6.97
  
 Calculated polar for: NACA 4412                                       
  
 1 1 Reynolds number fixed          Mach number fixed         
  
 xtrf =   1.000 (top)        1.000 (bottom)  
 Mach =   0.100     Re =     0.100 e 6     Ncrit =   9.000
  
   alpha    CL        CD       CDp       CM     Top_Xtr  Bot_Xtr
  ------ -------- --------- --------- -------- -------- --------
 -15.000  -0.4142   0.17604   0.17026  -0.0202   1.0000   0.0681
 -14.900  -0.4113   0.17487   0.16909  -0.0208   1.0000   0.0690
 -14.800  -0.4087   0.17374   0.16797  -0.0214   1.0000   0.0700
 -14.700  -0.4066   0.17271   0.16695  -0.0222   1.0000   0.0709
 -14.600  -0.4057   0.17192   0.16617  -0.0232   1.0000   0.0719
 -14.500  -0.4070   0.17165   0.16590  -0.0245   1.0000   0.0725
 -14.400  -0.4102   0.17176   0.16604  -0.0260   1.0000   0.0729
 -14.300  -0.4143   0.17200   0.16630  -0.0274   1.0000   0.0731
 -14.200  -0.4188   0.17220   0.16652  -0.0288   1.0000   0.0732
 -14.100  -0.4230   0.17215   0.16649  -0.0303   1.0000   0.0733
 -14.000  -0.4063   0.16684   0.16117  -0.0289   1.0000   0.0738
 -13.900  -0.3947   0.16355   0.15787  -0.0281   1.0000   0.0744
 -13.800  -0.3881   0.16161   0.15593  -0.0278   1.0000   0.0750
 -13.700  -0.3832   0.16008   0.15440  -0.0278   1.0000   0.0756
 -13.600  -0.3792   0.15874   0.15305  -0.0280   1.0000   0.0763
 -13.500  -0.3757   0.15748   0.15180  -0.0282   1.0000   0.0771
 -13.400  -0.3726   0.15626   0.15058  -0.0285   1.0000   0.0779
 -13.300  -0.3698   0.15506   0.14939  -0.0289   1.0000   0.0788
 -13.200  -0.3674   0.15388   0.14821  -0.0293   1.0000   0.0797
 -13.100  -0.3653   0.15273   0.14707  -0.0298   1.0000   0.0807
 -13.000  -0.3638   0.15164   0.14598  -0.0305   1.0000   0.0818
 -12.900  -0.3637   0.15076   0.14512  -0.0313   1.0000   0.0829
 -12.800  -0.3668   0.15041   0.14479  -0.0327   1.0000   0.0839
 -12.700  -0.3727   0.15050   0.14490  -0.0343   1.0000   0.0844
 -12.600  -0.3793   0.15057   0.14501  -0.0359   1.0000   0.0847
 -12.500  -0.3853   0.15041   0.14488  -0.0375   1.0000   0.0848
 -12.400  -0.3905   0.15003   0.14453  -0.0391   1.0000   0.0850
 -12.300  -0.3612   0.14363   0.13807  -0.0353   1.0000   0.0862
 -12.200  -0.3528   0.14172   0.13616  -0.0346   1.0000   0.0872
 -12.100  -0.3478   0.14032   0.13476  -0.0344   1.0000   0.0882
 -12.000  -0.3441   0.13908   0.13352  -0.0345   1.0000   0.0892
 -11.900  -0.3413   0.13789   0.13234  -0.0346   1.0000   0.0903
 -11.800  -0.3391   0.13672   0.13119  -0.0349   1.0000   0.0914
 -11.700  -0.3374   0.13558   0.13005  -0.0353   1.0000   0.0925
 -11.600  -0.3364   0.13449   0.12897  -0.0357   1.0000   0.0937
 -11.500  -0.3367   0.13352   0.12802  -0.0364   1.0000   0.0950
 -11.400  -0.3402   0.13293   0.12746  -0.0375   1.0000   0.0962
 -11.300  -0.3478   0.13284   0.12740  -0.0391   1.0000   0.0970
 -11.200  -0.3564   0.13276   0.12736  -0.0408   1.0000   0.0974
 -11.100  -0.3642   0.13249   0.12714  -0.0424   1.0000   0.0976
 -11.000  -0.3711   0.13204   0.12672  -0.0438   1.0000   0.0978
 -10.900  -0.3548   0.12793   0.12259  -0.0418   1.0000   0.0984
 -10.800  -0.3408   0.12529   0.11993  -0.0402   1.0000   0.0993
 -10.700  -0.3331   0.12362   0.11825  -0.0394   1.0000   0.1001
 -10.600  -0.3282   0.12229   0.11692  -0.0390   1.0000   0.1011
 -10.500  -0.3249   0.12110   0.11574  -0.0388   1.0000   0.1021
 -10.400  -0.3225   0.11999   0.11464  -0.0387   1.0000   0.1032
 -10.300  -0.3209   0.11892   0.11359  -0.0387   1.0000   0.1046
 -10.200  -0.3205   0.11791   0.11259  -0.0388   1.0000   0.1061
 -10.100  -0.3215   0.11698   0.11168  -0.0391   1.0000   0.1077
 -10.000  -0.3260   0.11630   0.11104  -0.0398   1.0000   0.1093
  -9.900  -0.3356   0.11607   0.11086  -0.0409   1.0000   0.1105
  -9.800  -0.3471   0.11595   0.11080  -0.0422   1.0000   0.1110
  -9.700  -0.3583   0.11573   0.11064  -0.0431   1.0000   0.1113
  -9.600  -0.3689   0.11541   0.11038  -0.0438   1.0000   0.1115
  -9.500  -0.3792   0.11502   0.11005  -0.0442   1.0000   0.1116
  -9.400  -0.3333   0.10939   0.10429  -0.0400   1.0000   0.1141
  -9.300  -0.3277   0.10820   0.10310  -0.0391   1.0000   0.1153
  -9.200  -0.3253   0.10718   0.10210  -0.0385   1.0000   0.1165
  -9.100  -0.3246   0.10623   0.10117  -0.0381   1.0000   0.1178
  -9.000  -0.3252   0.10533   0.10029  -0.0378   1.0000   0.1190
  -8.900  -0.3270   0.10447   0.09946  -0.0374   1.0000   0.1203
  -8.800  -0.3304   0.10369   0.09871  -0.0372   1.0000   0.1217
  -8.700  -0.3366   0.10307   0.09813  -0.0370   1.0000   0.1232
  -8.600  -0.3477   0.10279   0.09791  -0.0370   1.0000   0.1244
  -8.500  -0.3628   0.10281   0.09800  -0.0368   1.0000   0.1252
  -8.400  -0.3783   0.10285   0.09811  -0.0363   1.0000   0.1255
  -8.300  -0.3934   0.10285   0.09818  -0.0355   1.0000   0.1258
  -8.200  -0.4082   0.10280   0.09819  -0.0344   1.0000   0.1259
  -8.100  -0.4227   0.10260   0.09805  -0.0338   1.0000   0.1260
  -8.000  -0.4363   0.10206   0.09757  -0.0345   1.0000   0.1261
  -7.900  -0.4496   0.10132   0.09686  -0.0356   1.0000   0.1263
  -7.800  -0.3923   0.09626   0.09170  -0.0306   1.0000   0.1286
  -7.700  -0.3867   0.09516   0.09060  -0.0294   1.0000   0.1297
  -7.600  -0.3872   0.09439   0.08985  -0.0283   1.0000   0.1306
  -7.500  -0.3903   0.09375   0.08923  -0.0271   1.0000   0.1314
  -7.400  -0.3952   0.09318   0.08869  -0.0258   1.0000   0.1323
  -7.300  -0.4016   0.09266   0.08820  -0.0245   1.0000   0.1330
  -7.200  -0.4088   0.09216   0.08774  -0.0233   1.0000   0.1338
  -7.100  -0.4161   0.09161   0.08723  -0.0222   1.0000   0.1346
  -7.000  -0.4226   0.09092   0.08657  -0.0217   1.0000   0.1357
  -6.900  -0.4300   0.09018   0.08587  -0.0214   1.0000   0.1369
  -6.800  -0.4391   0.08937   0.08510  -0.0219   1.0000   0.1384
  -6.700  -0.4620   0.08827   0.08402  -0.0276   1.0000   0.1408
  -6.600  -0.4778   0.08618   0.08187  -0.0332   1.0000   0.1418
  -6.500  -0.4739   0.08466   0.08041  -0.0306   1.0000   0.1422
  -6.400  -0.4706   0.08357   0.07936  -0.0282   1.0000   0.1428
  -6.300  -0.4674   0.08277   0.07859  -0.0257   1.0000   0.1435
  -6.200  -0.4645   0.08214   0.07799  -0.0234   1.0000   0.1445
  -6.100  -0.4627   0.08153   0.07739  -0.0218   1.0000   0.1458
  -6.000  -0.4620   0.08080   0.07668  -0.0208   1.0000   0.1474
  -5.900  -0.4568   0.07960   0.07547  -0.0217   0.9989   0.1503
  -5.800  -0.4417   0.07464   0.07033  -0.0352   0.9935   0.1587
  -5.700  -0.4303   0.07357   0.06930  -0.0340   0.9920   0.1601
  -5.600  -0.4195   0.07246   0.06819  -0.0339   0.9895   0.1619
  -5.500  -0.4075   0.07104   0.06675  -0.0354   0.9865   0.1646
  -5.400  -0.3900   0.06700   0.06248  -0.0461   0.9821   0.1748
  -5.300  -0.3789   0.06565   0.06116  -0.0460   0.9800   0.1760
  -5.200  -0.3690   0.06449   0.06001  -0.0460   0.9767   0.1777
  -5.100  -0.3568   0.06335   0.05886  -0.0468   0.9737   0.1810
  -5.000  -0.3397   0.06055   0.05587  -0.0533   0.9703   0.1920
  -4.900  -0.3261   0.05949   0.05485  -0.0535   0.9687   0.1944
  -4.800  -0.3170   0.05842   0.05376  -0.0539   0.9645   0.1975
  -4.700  -0.3022   0.05612   0.05126  -0.0588   0.9602   0.2085
  -4.600  -0.2883   0.05454   0.04967  -0.0600   0.9578   0.2099
  -4.500  -0.2715   0.05265   0.04770  -0.0626   0.9558   0.2110
  -4.400  -0.2329   0.03233   0.02459  -0.0767   0.9584   0.1066
  -4.300  -0.2142   0.03126   0.02321  -0.0783   0.9565   0.1087
  -4.200  -0.1939   0.03051   0.02205  -0.0800   0.9548   0.1117
  -4.100  -0.1828   0.02972   0.02133  -0.0805   0.9510   0.1142
  -4.000  -0.1691   0.02936   0.02099  -0.0811   0.9472   0.1170
  -3.900  -0.1522   0.02886   0.02040  -0.0823   0.9444   0.1202
  -3.800  -0.1334   0.02830   0.01961  -0.0837   0.9422   0.1242
  -3.700  -0.1142   0.02765   0.01885  -0.0853   0.9405   0.1284
  -3.600  -0.1014   0.02736   0.01860  -0.0858   0.9367   0.1321
  -3.500  -0.0889   0.02705   0.01823  -0.0861   0.9324   0.1360
  -3.400  -0.0718   0.02670   0.01766  -0.0871   0.9294   0.1411
  -3.300  -0.0542   0.02618   0.01726  -0.0885   0.9272   0.1463
  -3.200  -0.0350   0.02587   0.01690  -0.0900   0.9253   0.1529
  -3.100  -0.0196   0.02550   0.01644  -0.0907   0.9223   0.1588
  -3.000  -0.0102   0.02529   0.01631  -0.0905   0.9171   0.1636
  -2.900   0.0061   0.02505   0.01598  -0.0914   0.9139   0.1716
  -2.800   0.0239   0.02465   0.01565  -0.0927   0.9117   0.1790
  -2.700   0.0436   0.02441   0.01529  -0.0942   0.9098   0.1896
  -2.600   0.0634   0.02401   0.01504  -0.0958   0.9083   0.1996
  -2.500   0.0677   0.02398   0.01493  -0.0946   0.9010   0.2063
  -2.400   0.0836   0.02366   0.01473  -0.0955   0.8980   0.2165
  -2.300   0.1019   0.02334   0.01445  -0.0968   0.8958   0.2293
  -2.200   0.1215   0.02301   0.01416  -0.0982   0.8941   0.2442
  -2.100   0.1417   0.02267   0.01389  -0.0998   0.8927   0.2610
  -2.000   0.1447   0.02268   0.01392  -0.0984   0.8850   0.2703
  -1.900   0.1611   0.02239   0.01371  -0.0993   0.8821   0.2877
  -1.800   0.1796   0.02205   0.01344  -0.1006   0.8800   0.3088
  -1.700   0.1986   0.02164   0.01318  -0.1019   0.8784   0.3317
  -1.600   0.2175   0.02123   0.01288  -0.1032   0.8769   0.3600
  -1.500   0.2218   0.02117   0.01294  -0.1020   0.8697   0.3779
  -1.400   0.2365   0.02079   0.01274  -0.1025   0.8666   0.4110
  -1.300   0.2522   0.02031   0.01253  -0.1031   0.8643   0.4600
  -1.200   0.2675   0.01970   0.01236  -0.1036   0.8625   0.5474
  -1.100   0.2786   0.01897   0.01226  -0.1025   0.8610   0.7019
  -1.000   0.3143   0.01827   0.01199  -0.1056   0.8608   1.0000
  -0.900   0.3175   0.01845   0.01208  -0.1043   0.8527   1.0000
  -0.800   0.3332   0.01835   0.01187  -0.1049   0.8494   1.0000
  -0.700   0.3508   0.01820   0.01161  -0.1059   0.8470   1.0000
  -0.600   0.3691   0.01803   0.01133  -0.1069   0.8451   1.0000
  -0.500   0.3741   0.01820   0.01144  -0.1058   0.8379   1.0000
  -0.400   0.3878   0.01813   0.01129  -0.1061   0.8340   1.0000
  -0.300   0.4041   0.01798   0.01107  -0.1068   0.8314   1.0000
  -0.200   0.4213   0.01782   0.01082  -0.1076   0.8293   1.0000
  -0.100   0.4274   0.01797   0.01093  -0.1067   0.8225   1.0000
   0.000   0.4399   0.01793   0.01082  -0.1068   0.8183   1.0000
   0.100   0.4553   0.01780   0.01062  -0.1073   0.8154   1.0000
   0.200   0.4718   0.01763   0.01039  -0.1079   0.8131   1.0000
   0.300   0.4781   0.01780   0.01052  -0.1071   0.8065   1.0000
   0.400   0.4901   0.01777   0.01044  -0.1071   0.8021   1.0000
   0.500   0.5049   0.01765   0.01027  -0.1074   0.7991   1.0000
   0.600   0.5208   0.01750   0.01005  -0.1080   0.7968   1.0000
   0.700   0.5268   0.01770   0.01023  -0.1071   0.7900   1.0000
   0.800   0.5387   0.01768   0.01017  -0.1071   0.7857   1.0000
   0.900   0.5531   0.01758   0.01000  -0.1074   0.7827   1.0000
   1.000   0.5686   0.01744   0.00981  -0.1078   0.7803   1.0000
   1.100   0.5738   0.01769   0.01005  -0.1069   0.7732   1.0000
   1.200   0.5858   0.01768   0.00999  -0.1068   0.7691   1.0000
   1.300   0.6000   0.01758   0.00985  -0.1071   0.7661   1.0000
   1.400   0.6138   0.01752   0.00974  -0.1073   0.7631   1.0000
   1.500   0.6197   0.01776   0.00998  -0.1065   0.7563   1.0000
   1.600   0.6320   0.01775   0.00992  -0.1065   0.7524   1.0000
   1.700   0.6459   0.01767   0.00980  -0.1067   0.7495   1.0000
   1.800   0.6567   0.01775   0.00984  -0.1065   0.7453   1.0000
   1.900   0.6648   0.01792   0.01001  -0.1060   0.7397   1.0000
   2.000   0.6770   0.01792   0.00997  -0.1060   0.7359   1.0000
   2.100   0.6908   0.01786   0.00986  -0.1062   0.7330   1.0000
   2.200   0.7003   0.01799   0.00998  -0.1059   0.7284   1.0000
   2.300   0.7091   0.01815   0.01013  -0.1055   0.7232   1.0000
   2.400   0.7213   0.01816   0.01011  -0.1055   0.7196   1.0000
   2.500   0.7348   0.01813   0.01003  -0.1057   0.7167   1.0000
   2.600   0.7440   0.01829   0.01018  -0.1053   0.7121   1.0000
   2.700   0.7528   0.01845   0.01035  -0.1049   0.7071   1.0000
   2.800   0.7648   0.01848   0.01035  -0.1049   0.7034   1.0000
   2.900   0.7781   0.01847   0.01030  -0.1050   0.7005   1.0000
   3.000   0.7875   0.01863   0.01046  -0.1047   0.6963   1.0000
   3.100   0.7960   0.01882   0.01066  -0.1043   0.6913   1.0000
   3.200   0.8076   0.01887   0.01069  -0.1042   0.6876   1.0000
   3.300   0.8207   0.01887   0.01065  -0.1043   0.6846   1.0000
   3.400   0.8310   0.01901   0.01078  -0.1041   0.6808   1.0000
   3.500   0.8388   0.01924   0.01104  -0.1036   0.6758   1.0000
   3.600   0.8499   0.01932   0.01110  -0.1035   0.6719   1.0000
   3.700   0.8627   0.01933   0.01109  -0.1036   0.6688   1.0000
   3.800   0.8746   0.01941   0.01114  -0.1036   0.6656   1.0000
   3.900   0.8812   0.01969   0.01148  -0.1029   0.6604   1.0000
   4.000   0.8918   0.01981   0.01159  -0.1028   0.6564   1.0000
   4.100   0.9043   0.01984   0.01159  -0.1028   0.6532   1.0000
   4.200   0.9179   0.01985   0.01155  -0.1030   0.6505   1.0000
   4.300   0.9235   0.02018   0.01195  -0.1022   0.6452   1.0000
   4.400   0.9334   0.02033   0.01212  -0.1020   0.6410   1.0000
   4.500   0.9455   0.02038   0.01215  -0.1020   0.6376   1.0000
   4.600   0.9590   0.02039   0.01212  -0.1021   0.6348   1.0000
   4.700   0.9656   0.02069   0.01248  -0.1015   0.6299   1.0000
   4.800   0.9748   0.02087   0.01268  -0.1011   0.6255   1.0000
   4.900   0.9865   0.02094   0.01274  -0.1011   0.6219   1.0000
   5.000   0.9998   0.02095   0.01271  -0.1012   0.6190   1.0000
   5.100   1.0074   0.02122   0.01303  -0.1007   0.6144   1.0000
   5.200   1.0159   0.02142   0.01329  -0.1002   0.6098   1.0000
   5.300   1.0274   0.02150   0.01335  -0.1001   0.6060   1.0000
   5.400   1.0407   0.02151   0.01333  -0.1003   0.6029   1.0000
   5.500   1.0484   0.02176   0.01363  -0.0997   0.5984   1.0000
   5.600   1.0566   0.02198   0.01389  -0.0992   0.5936   1.0000
   5.700   1.0682   0.02204   0.01395  -0.0991   0.5897   1.0000
   5.800   1.0817   0.02204   0.01390  -0.0993   0.5864   1.0000
   5.900   1.0885   0.02233   0.01426  -0.0986   0.5815   1.0000
   6.000   1.0971   0.02251   0.01449  -0.0981   0.5767   1.0000
   6.100   1.1092   0.02254   0.01451  -0.0981   0.5727   1.0000
   6.200   1.1234   0.02252   0.01442  -0.0983   0.5693   1.0000
   6.300   1.1276   0.02287   0.01489  -0.0973   0.5635   1.0000
   6.400   1.1378   0.02296   0.01500  -0.0970   0.5587   1.0000
   6.500   1.1511   0.02293   0.01492  -0.0970   0.5547   1.0000
   6.600   1.1588   0.02313   0.01518  -0.0964   0.5495   1.0000
   6.700   1.1670   0.02328   0.01537  -0.0958   0.5439   1.0000
   6.800   1.1796   0.02324   0.01530  -0.0958   0.5393   1.0000
   6.900   1.1889   0.02336   0.01544  -0.0953   0.5340   1.0000
   7.000   1.1963   0.02350   0.01564  -0.0946   0.5279   1.0000
   7.100   1.2089   0.02343   0.01552  -0.0945   0.5228   1.0000
   7.200   1.2169   0.02356   0.01569  -0.0939   0.5169   1.0000
   7.300   1.2251   0.02364   0.01581  -0.0932   0.5106   1.0000
   7.400   1.2386   0.02353   0.01561  -0.0933   0.5053   1.0000
   7.500   1.2437   0.02374   0.01592  -0.0922   0.4986   1.0000
   7.600   1.2533   0.02374   0.01593  -0.0918   0.4924   1.0000
   7.700   1.2643   0.02373   0.01589  -0.0915   0.4866   1.0000
   7.800   1.2699   0.02389   0.01613  -0.0905   0.4796   1.0000
   7.900   1.2817   0.02381   0.01599  -0.0903   0.4736   1.0000
   8.000   1.2874   0.02397   0.01623  -0.0893   0.4668   1.0000
   8.100   1.2959   0.02399   0.01626  -0.0887   0.4600   1.0000
   8.200   1.3049   0.02403   0.01629  -0.0881   0.4535   1.0000
   8.300   1.3107   0.02414   0.01646  -0.0871   0.4461   1.0000
   8.400   1.3215   0.02410   0.01636  -0.0868   0.4396   1.0000
   8.500   1.3250   0.02427   0.01666  -0.0855   0.4317   1.0000
   8.600   1.3346   0.02424   0.01657  -0.0850   0.4247   1.0000
   8.700   1.3382   0.02441   0.01684  -0.0837   0.4166   1.0000
   8.800   1.3462   0.02441   0.01680  -0.0829   0.4090   1.0000
   8.900   1.3496   0.02458   0.01707  -0.0816   0.4003   1.0000
   9.000   1.3567   0.02460   0.01703  -0.0807   0.3924   1.0000
   9.100   1.3592   0.02478   0.01732  -0.0793   0.3828   1.0000
   9.200   1.3639   0.02488   0.01741  -0.0781   0.3739   1.0000
   9.300   1.3672   0.02503   0.01758  -0.0767   0.3640   1.0000
   9.400   1.3698   0.02522   0.01782  -0.0753   0.3535   1.0000
   9.500   1.3724   0.02541   0.01798  -0.0738   0.3430   1.0000
   9.600   1.3739   0.02565   0.01820  -0.0722   0.3317   1.0000
   9.700   1.3744   0.02596   0.01852  -0.0705   0.3194   1.0000
   9.800   1.3737   0.02629   0.01883  -0.0686   0.3072   1.0000
   9.900   1.3721   0.02668   0.01917  -0.0667   0.2948   1.0000
  10.000   1.3700   0.02715   0.01957  -0.0647   0.2820   1.0000
  10.100   1.3673   0.02771   0.02004  -0.0627   0.2687   1.0000
  10.200   1.3640   0.02835   0.02060  -0.0608   0.2551   1.0000
  10.300   1.3605   0.02906   0.02124  -0.0590   0.2412   1.0000
  10.400   1.3568   0.02985   0.02194  -0.0572   0.2277   1.0000
  10.500   1.3529   0.03070   0.02271  -0.0555   0.2150   1.0000
  10.600   1.3491   0.03161   0.02353  -0.0539   0.2034   1.0000
  10.700   1.3449   0.03257   0.02437  -0.0523   0.1935   1.0000
  10.800   1.3414   0.03354   0.02528  -0.0509   0.1835   1.0000
  10.900   1.3386   0.03452   0.02620  -0.0496   0.1742   1.0000
  11.000   1.3351   0.03555   0.02711  -0.0483   0.1673   1.0000
  11.100   1.3337   0.03651   0.02806  -0.0472   0.1589   1.0000
  11.200   1.3311   0.03753   0.02897  -0.0461   0.1532   1.0000
  11.300   1.3307   0.03847   0.02992  -0.0451   0.1463   1.0000
  11.400   1.3295   0.03944   0.03084  -0.0442   0.1411   1.0000
  11.500   1.3295   0.04038   0.03173  -0.0432   0.1359   1.0000
  11.600   1.3299   0.04129   0.03265  -0.0424   0.1308   1.0000
  11.700   1.3302   0.04220   0.03348  -0.0416   0.1267   1.0000
  11.800   1.3318   0.04308   0.03435  -0.0408   0.1224   1.0000
  11.900   1.3332   0.04395   0.03525  -0.0401   0.1183   1.0000
  12.000   1.3350   0.04479   0.03604  -0.0394   0.1148   1.0000
  12.100   1.3394   0.04557   0.03669  -0.0387   0.1112   1.0000
  12.200   1.3413   0.04644   0.03767  -0.0380   0.1081   1.0000
  12.300   1.3439   0.04726   0.03851  -0.0374   0.1050   1.0000
  12.400   1.3474   0.04802   0.03922  -0.0368   0.1021   1.0000
  12.500   1.3561   0.04865   0.03969  -0.0363   0.0988   1.0000
  12.600   1.3576   0.04956   0.04075  -0.0356   0.0967   1.0000
  12.700   1.3606   0.05041   0.04167  -0.0351   0.0944   1.0000
  12.800   1.3648   0.05119   0.04247  -0.0345   0.0921   1.0000
  12.900   1.3706   0.05187   0.04311  -0.0340   0.0898   1.0000
  13.000   1.3851   0.05245   0.04352  -0.0337   0.0868   1.0000
  13.100   1.3855   0.05343   0.04464  -0.0331   0.0855   1.0000
  13.200   1.3872   0.05439   0.04572  -0.0325   0.0839   1.0000
  13.300   1.3897   0.05532   0.04674  -0.0320   0.0823   1.0000
  13.400   1.3935   0.05620   0.04766  -0.0315   0.0807   1.0000
  13.500   1.3992   0.05699   0.04846  -0.0311   0.0792   1.0000
  13.600   1.4101   0.05762   0.04900  -0.0308   0.0774   1.0000
  13.700   1.4248   0.05861   0.04993  -0.0307   0.0754   1.0000
  13.800   1.4230   0.05975   0.05122  -0.0300   0.0746   1.0000
  13.900   1.4217   0.06092   0.05253  -0.0294   0.0738   1.0000
  14.000   1.4208   0.06211   0.05384  -0.0289   0.0729   1.0000
  14.100   1.4205   0.06329   0.05515  -0.0284   0.0720   1.0000
  14.200   1.4208   0.06446   0.05640  -0.0279   0.0711   1.0000
  14.300   1.4218   0.06559   0.05761  -0.0275   0.0702   1.0000
  14.400   1.4224   0.06677   0.05886  -0.0271   0.0694   1.0000
  14.500   1.4233   0.06796   0.06012  -0.0267   0.0687   1.0000
  14.600   1.4250   0.06913   0.06134  -0.0263   0.0680   1.0000
  14.700   1.4294   0.07021   0.06244  -0.0260   0.0671   1.0000
  14.800   1.4449   0.07136   0.06350  -0.0259   0.0658   1.0000
  14.900   1.4440   0.07310   0.06532  -0.0255   0.0652   1.0000
  15.000   1.4369   0.07469   0.06705  -0.0251   0.0651   1.0000
