  
       XFOIL         Version 6.97
  
 Calculated polar for: NACA 4412                                       
  
 1 1 Reynolds number fixed          Mach number fixed         
  
 xtrf =   1.000 (top)        1.000 (bottom)  
 Mach =   0.000     Re =     0.500 e 6     Ncrit =   9.000
  
   alpha    CL        CD       CDp       CM     Top_Xtr  Bot_Xtr
  ------ -------- --------- --------- -------- -------- --------
 -15.000  -0.2998   0.15525   0.15285  -0.0379   1.0000   0.0246
 -14.900  -0.3021   0.15407   0.15166  -0.0386   1.0000   0.0246
 -14.800  -0.2966   0.15278   0.15038  -0.0381   1.0000   0.0248
 -14.700  -0.2916   0.15194   0.14954  -0.0379   1.0000   0.0249
 -14.600  -0.2880   0.15118   0.14879  -0.0378   1.0000   0.0250
 -14.500  -0.2850   0.15044   0.14805  -0.0377   1.0000   0.0251
 -14.400  -0.2826   0.14969   0.14730  -0.0378   1.0000   0.0252
 -14.300  -0.2807   0.14893   0.14654  -0.0379   1.0000   0.0253
 -14.200  -0.2791   0.14812   0.14574  -0.0380   1.0000   0.0255
 -14.100  -0.2777   0.14730   0.14492  -0.0381   1.0000   0.0256
 -14.000  -0.2765   0.14645   0.14407  -0.0383   1.0000   0.0258
 -13.900  -0.2754   0.14556   0.14318  -0.0384   1.0000   0.0260
 -13.800  -0.2743   0.14464   0.14226  -0.0386   1.0000   0.0262
 -13.700  -0.2734   0.14368   0.14130  -0.0388   1.0000   0.0265
 -13.600  -0.2727   0.14268   0.14030  -0.0390   1.0000   0.0268
 -13.500  -0.2722   0.14164   0.13926  -0.0391   1.0000   0.0271
 -13.400  -0.2721   0.14052   0.13815  -0.0394   1.0000   0.0275
 -13.300  -0.2728   0.13923   0.13686  -0.0398   1.0000   0.0281
 -13.100  -0.2918   0.13457   0.13220  -0.0430   1.0000   0.0290
 -13.000  -0.2946   0.13289   0.13053  -0.0436   1.0000   0.0290
 -12.800  -0.3683   0.13842   0.13587  -0.0331   1.0000   0.0273
 -12.700  -0.3669   0.13690   0.13435  -0.0338   1.0000   0.0278
 -12.500  -0.3817   0.13042   0.12789  -0.0391   1.0000   0.0290
 -12.400  -0.3825   0.12834   0.12582  -0.0402   1.0000   0.0290
 -12.300  -0.2783   0.12627   0.12394  -0.0419   1.0000   0.0298
 -12.200  -0.2769   0.12541   0.12309  -0.0417   1.0000   0.0299
 -12.100  -0.2758   0.12453   0.12222  -0.0416   1.0000   0.0301
 -12.000  -0.2750   0.12362   0.12131  -0.0414   1.0000   0.0303
 -11.900  -0.2745   0.12271   0.12040  -0.0413   1.0000   0.0305
 -11.800  -0.2742   0.12177   0.11947  -0.0411   1.0000   0.0308
 -11.700  -0.2742   0.12080   0.11851  -0.0409   1.0000   0.0311
 -11.600  -0.2746   0.11978   0.11750  -0.0408   1.0000   0.0315
 -11.500  -0.2756   0.11867   0.11640  -0.0406   1.0000   0.0320
 -11.400  -0.2778   0.11736   0.11510  -0.0407   1.0000   0.0327
 -11.200  -0.3054   0.11071   0.10847  -0.0441   1.0000   0.0340
 -11.100  -0.3089   0.10915   0.10692  -0.0441   1.0000   0.0340
 -11.000  -0.3126   0.10762   0.10540  -0.0440   1.0000   0.0340
 -10.900  -0.3481   0.11164   0.10919  -0.0423   1.0000   0.0330
 -10.800  -0.3690   0.10603   0.10361  -0.0468   1.0000   0.0339
 -10.700  -0.3714   0.10417   0.10176  -0.0474   1.0000   0.0340
 -10.600  -0.3741   0.10234   0.09995  -0.0479   1.0000   0.0340
 -10.500  -0.4982   0.07573   0.07340  -0.0545   1.0000   0.0248
 -10.400  -0.4979   0.07560   0.07329  -0.0537   1.0000   0.0248
 -10.300  -0.4990   0.07534   0.07305  -0.0529   1.0000   0.0249
 -10.200  -0.5007   0.07507   0.07280  -0.0521   1.0000   0.0250
 -10.100  -0.5028   0.07484   0.07259  -0.0511   1.0000   0.0250
 -10.000  -0.5051   0.07467   0.07245  -0.0500   1.0000   0.0251
  -9.900  -0.5075   0.07458   0.07237  -0.0489   1.0000   0.0252
  -9.800  -0.5099   0.07428   0.07208  -0.0481   0.9999   0.0253
  -9.700  -0.5038   0.07282   0.07063  -0.0502   0.9989   0.0254
  -9.600  -0.4969   0.07156   0.06936  -0.0523   0.9977   0.0255
  -9.500  -0.4886   0.07057   0.06838  -0.0542   0.9965   0.0257
  -9.400  -0.4785   0.07002   0.06783  -0.0557   0.9954   0.0259
  -9.300  -0.4650   0.07034   0.06814  -0.0563   0.9947   0.0262
  -9.200  -0.4129   0.08130   0.07908  -0.0480   0.9974   0.0303
  -9.100  -0.4049   0.08030   0.07807  -0.0496   0.9964   0.0306
  -9.000  -0.3951   0.07973   0.07751  -0.0509   0.9955   0.0314
  -8.900  -0.5313   0.02106   0.01601  -0.1006   0.9719   0.0270
  -8.800  -0.5175   0.02068   0.01556  -0.1014   0.9713   0.0274
  -8.700  -0.5035   0.02026   0.01507  -0.1023   0.9707   0.0278
  -8.600  -0.4893   0.01982   0.01455  -0.1031   0.9702   0.0282
  -8.500  -0.4748   0.01941   0.01404  -0.1040   0.9697   0.0286
  -8.400  -0.4600   0.01907   0.01361  -0.1049   0.9693   0.0289
  -8.300  -0.4468   0.01828   0.01274  -0.1058   0.9688   0.0294
  -8.200  -0.4372   0.01778   0.01222  -0.1057   0.9665   0.0298
  -8.100  -0.4270   0.01748   0.01191  -0.1056   0.9640   0.0301
  -8.000  -0.4146   0.01721   0.01163  -0.1060   0.9623   0.0305
  -7.900  -0.4014   0.01695   0.01136  -0.1065   0.9609   0.0310
  -7.800  -0.3879   0.01669   0.01107  -0.1071   0.9596   0.0315
  -7.700  -0.3743   0.01642   0.01076  -0.1077   0.9584   0.0321
  -7.600  -0.3607   0.01616   0.01046  -0.1082   0.9572   0.0327
  -7.500  -0.3470   0.01593   0.01017  -0.1088   0.9561   0.0333
  -7.400  -0.3332   0.01573   0.00992  -0.1093   0.9551   0.0338
  -7.300  -0.3230   0.01535   0.00949  -0.1092   0.9528   0.0343
  -7.200  -0.3146   0.01494   0.00907  -0.1088   0.9495   0.0350
  -7.100  -0.3038   0.01470   0.00884  -0.1087   0.9471   0.0355
  -7.000  -0.2921   0.01450   0.00863  -0.1089   0.9452   0.0361
  -6.900  -0.2801   0.01431   0.00843  -0.1091   0.9435   0.0368
  -6.800  -0.2680   0.01411   0.00820  -0.1092   0.9419   0.0374
  -6.700  -0.2559   0.01391   0.00797  -0.1094   0.9405   0.0382
  -6.600  -0.2447   0.01374   0.00776  -0.1094   0.9386   0.0388
  -6.500  -0.2352   0.01361   0.00760  -0.1090   0.9352   0.0394
  -6.400  -0.2249   0.01338   0.00733  -0.1088   0.9325   0.0401
  -6.300  -0.2147   0.01301   0.00697  -0.1087   0.9300   0.0411
  -6.200  -0.2035   0.01284   0.00680  -0.1087   0.9279   0.0420
  -6.100  -0.1920   0.01270   0.00666  -0.1088   0.9260   0.0429
  -6.000  -0.1803   0.01256   0.00650  -0.1088   0.9243   0.0439
  -5.900  -0.1702   0.01245   0.00637  -0.1086   0.9213   0.0448
  -5.800  -0.1598   0.01233   0.00622  -0.1084   0.9182   0.0457
  -5.700  -0.1488   0.01223   0.00608  -0.1083   0.9154   0.0464
  -5.600  -0.1387   0.01187   0.00572  -0.1081   0.9128   0.0478
  -5.500  -0.1276   0.01169   0.00554  -0.1081   0.9106   0.0489
  -5.400  -0.1161   0.01157   0.00541  -0.1081   0.9085   0.0502
  -5.300  -0.1057   0.01148   0.00531  -0.1079   0.9052   0.0515
  -5.200  -0.0951   0.01139   0.00520  -0.1077   0.9018   0.0528
  -5.100  -0.0841   0.01131   0.00509  -0.1076   0.8987   0.0539
  -5.000  -0.0736   0.01105   0.00483  -0.1075   0.8958   0.0557
  -4.900  -0.0624   0.01089   0.00467  -0.1075   0.8934   0.0574
  -4.800  -0.0516   0.01080   0.00457  -0.1074   0.8901   0.0590
  -4.700  -0.0410   0.01071   0.00447  -0.1072   0.8864   0.0606
  -4.600  -0.0300   0.01064   0.00437  -0.1071   0.8830   0.0623
  -4.500  -0.0191   0.01049   0.00420  -0.1070   0.8800   0.0643
  -4.400  -0.0080   0.01033   0.00405  -0.1070   0.8774   0.0668
  -4.300   0.0029   0.01025   0.00397  -0.1069   0.8740   0.0690
  -4.200   0.0137   0.01018   0.00389  -0.1068   0.8702   0.0713
  -4.100   0.0248   0.01012   0.00380  -0.1067   0.8666   0.0732
  -4.000   0.0356   0.00994   0.00363  -0.1066   0.8633   0.0766
  -3.900   0.0469   0.00985   0.00353  -0.1065   0.8603   0.0797
  -3.800   0.0576   0.00979   0.00347  -0.1064   0.8561   0.0826
  -3.700   0.0687   0.00974   0.00340  -0.1063   0.8520   0.0852
  -3.600   0.0795   0.00959   0.00327  -0.1062   0.8483   0.0897
  -3.500   0.0907   0.00952   0.00318  -0.1062   0.8450   0.0936
  -3.400   0.1017   0.00948   0.00312  -0.1061   0.8409   0.0971
  -3.300   0.1125   0.00937   0.00303  -0.1060   0.8367   0.1019
  -3.200   0.1235   0.00929   0.00297  -0.1060   0.8327   0.1068
  -3.100   0.1348   0.00926   0.00289  -0.1059   0.8292   0.1112
  -3.000   0.1456   0.00916   0.00283  -0.1058   0.8249   0.1172
  -2.900   0.1566   0.00910   0.00277  -0.1057   0.8203   0.1230
  -2.800   0.1676   0.00904   0.00270  -0.1057   0.8161   0.1287
  -2.500   0.2005   0.00886   0.00255  -0.1055   0.8029   0.1498
  -2.400   0.2116   0.00883   0.00250  -0.1054   0.7986   0.1571
  -2.300   0.2226   0.00876   0.00246  -0.1053   0.7945   0.1658
  -2.100   0.2445   0.00866   0.00239  -0.1052   0.7847   0.1834
  -2.000   0.2555   0.00863   0.00234  -0.1051   0.7804   0.1926
  -1.900   0.2664   0.00857   0.00232  -0.1051   0.7754   0.2029
  -1.800   0.2774   0.00852   0.00229  -0.1050   0.7703   0.2132
  -1.600   0.2992   0.00845   0.00223  -0.1049   0.7608   0.2356
  -1.500   0.3101   0.00840   0.00221  -0.1048   0.7555   0.2475
  -1.400   0.3210   0.00837   0.00219  -0.1047   0.7505   0.2599
  -1.300   0.3320   0.00834   0.00217  -0.1046   0.7457   0.2733
  -1.200   0.3428   0.00829   0.00215  -0.1046   0.7402   0.2877
  -1.100   0.3536   0.00825   0.00213  -0.1045   0.7350   0.3028
  -1.000   0.3644   0.00822   0.00212  -0.1044   0.7301   0.3190
  -0.900   0.3753   0.00816   0.00211  -0.1043   0.7245   0.3369
  -0.800   0.3860   0.00811   0.00209  -0.1043   0.7191   0.3570
  -0.700   0.3966   0.00805   0.00208  -0.1042   0.7142   0.3810
  -0.600   0.4072   0.00794   0.00207  -0.1041   0.7085   0.4132
  -0.500   0.4174   0.00781   0.00208  -0.1039   0.7031   0.4635
  -0.400   0.4273   0.00766   0.00209  -0.1038   0.6981   0.5277
  -0.300   0.4371   0.00749   0.00211  -0.1035   0.6924   0.5918
  -0.200   0.4466   0.00735   0.00214  -0.1032   0.6869   0.6516
  -0.100   0.4557   0.00722   0.00216  -0.1027   0.6820   0.7092
   0.000   0.4645   0.00707   0.00219  -0.1020   0.6765   0.7677
   0.100   0.4722   0.00695   0.00223  -0.1011   0.6712   0.8268
   0.200   0.4796   0.00687   0.00226  -0.0999   0.6664   0.8856
   0.300   0.4936   0.00682   0.00228  -0.1002   0.6607   0.9403
   0.400   0.5144   0.00684   0.00227  -0.1022   0.6548   0.9758
   0.500   0.5343   0.00689   0.00226  -0.1041   0.6493   0.9946
   0.600   0.5489   0.00692   0.00226  -0.1049   0.6436   1.0000
   0.700   0.5590   0.00697   0.00227  -0.1047   0.6383   1.0000
   0.800   0.5691   0.00703   0.00227  -0.1044   0.6334   1.0000
   0.900   0.5795   0.00706   0.00228  -0.1042   0.6281   1.0000
   1.000   0.5897   0.00711   0.00229  -0.1040   0.6228   1.0000
   1.100   0.5998   0.00718   0.00230  -0.1038   0.6182   1.0000
   1.200   0.6103   0.00722   0.00232  -0.1036   0.6132   1.0000
   1.300   0.6207   0.00727   0.00234  -0.1035   0.6082   1.0000
   1.400   0.6309   0.00733   0.00236  -0.1033   0.6036   1.0000
   1.500   0.6414   0.00738   0.00238  -0.1031   0.5991   1.0000
   1.600   0.6519   0.00743   0.00240  -0.1030   0.5943   1.0000
   1.700   0.6623   0.00749   0.00242  -0.1028   0.5898   1.0000
   1.800   0.6725   0.00756   0.00245  -0.1026   0.5857   1.0000
   1.900   0.6832   0.00760   0.00247  -0.1025   0.5814   1.0000
   2.000   0.6938   0.00765   0.00251  -0.1024   0.5770   1.0000
   2.100   0.7042   0.00771   0.00253  -0.1022   0.5728   1.0000
   2.200   0.7146   0.00779   0.00257  -0.1020   0.5691   1.0000
   2.300   0.7254   0.00783   0.00260  -0.1019   0.5651   1.0000
   2.400   0.7360   0.00788   0.00263  -0.1018   0.5611   1.0000
   2.500   0.7465   0.00794   0.00267  -0.1017   0.5572   1.0000
   2.600   0.7568   0.00802   0.00270  -0.1015   0.5537   1.0000
   2.700   0.7676   0.00807   0.00275  -0.1014   0.5501   1.0000
   2.800   0.7783   0.00812   0.00278  -0.1014   0.5464   1.0000
   2.900   0.7889   0.00818   0.00282  -0.1012   0.5428   1.0000
   3.000   0.7993   0.00825   0.00286  -0.1011   0.5394   1.0000
   3.100   0.8098   0.00832   0.00291  -0.1010   0.5362   1.0000
   3.200   0.8207   0.00836   0.00295  -0.1009   0.5328   1.0000
   3.300   0.8314   0.00842   0.00300  -0.1008   0.5292   1.0000
   3.400   0.8419   0.00848   0.00304  -0.1007   0.5259   1.0000
   3.500   0.8523   0.00856   0.00310  -0.1005   0.5227   1.0000
   3.600   0.8629   0.00863   0.00315  -0.1004   0.5197   1.0000
   3.700   0.8737   0.00867   0.00320  -0.1004   0.5164   1.0000
   3.800   0.8844   0.00873   0.00325  -0.1003   0.5130   1.0000
   3.900   0.8949   0.00879   0.00330  -0.1001   0.5098   1.0000
   4.000   0.9053   0.00888   0.00335  -0.1000   0.5067   1.0000
   4.100   0.9158   0.00896   0.00341  -0.0999   0.5037   1.0000
   4.200   0.9266   0.00899   0.00347  -0.0998   0.5005   1.0000
   4.300   0.9372   0.00905   0.00353  -0.0997   0.4972   1.0000
   4.400   0.9477   0.00912   0.00358  -0.0996   0.4939   1.0000
   4.500   0.9580   0.00920   0.00364  -0.0994   0.4907   1.0000
   4.600   0.9684   0.00929   0.00371  -0.0993   0.4876   1.0000
   4.700   0.9791   0.00933   0.00377  -0.0992   0.4843   1.0000
   4.800   0.9897   0.00938   0.00383  -0.0991   0.4807   1.0000
   4.900   1.0000   0.00945   0.00389  -0.0989   0.4772   1.0000
   5.000   1.0101   0.00955   0.00396  -0.0988   0.4737   1.0000
   5.100   1.0205   0.00962   0.00402  -0.0986   0.4702   1.0000
   5.200   1.0311   0.00966   0.00409  -0.0985   0.4662   1.0000
   5.300   1.0413   0.00973   0.00415  -0.0983   0.4620   1.0000
   5.400   1.0512   0.00983   0.00421  -0.0981   0.4580   1.0000
   5.500   1.0615   0.00990   0.00428  -0.0980   0.4538   1.0000
   5.600   1.0718   0.00995   0.00435  -0.0978   0.4492   1.0000
   5.700   1.0818   0.01003   0.00441  -0.0976   0.4446   1.0000
   5.800   1.0914   0.01014   0.00449  -0.0974   0.4403   1.0000
   5.900   1.1020   0.01018   0.00456  -0.0972   0.4359   1.0000
   6.000   1.1121   0.01025   0.00463  -0.0971   0.4311   1.0000
   6.100   1.1219   0.01035   0.00471  -0.0968   0.4266   1.0000
   6.200   1.1318   0.01044   0.00479  -0.0966   0.4223   1.0000
   6.300   1.1421   0.01049   0.00486  -0.0965   0.4175   1.0000
   6.400   1.1519   0.01058   0.00494  -0.0963   0.4125   1.0000
   6.500   1.1613   0.01070   0.00502  -0.0960   0.4079   1.0000
   6.600   1.1717   0.01075   0.00511  -0.0958   0.4027   1.0000
   6.700   1.1815   0.01084   0.00519  -0.0956   0.3971   1.0000
   6.800   1.1908   0.01095   0.00528  -0.0953   0.3918   1.0000
   6.900   1.2009   0.01102   0.00536  -0.0951   0.3857   1.0000
   7.000   1.2102   0.01114   0.00546  -0.0948   0.3794   1.0000
   7.100   1.2197   0.01124   0.00555  -0.0945   0.3732   1.0000
   7.200   1.2290   0.01135   0.00565  -0.0942   0.3659   1.0000
   7.300   1.2380   0.01149   0.00576  -0.0939   0.3590   1.0000
   7.400   1.2472   0.01161   0.00587  -0.0936   0.3511   1.0000
   7.500   1.2558   0.01176   0.00600  -0.0932   0.3433   1.0000
   7.600   1.2646   0.01191   0.00612  -0.0928   0.3344   1.0000
   7.700   1.2731   0.01208   0.00625  -0.0924   0.3256   1.0000
   7.800   1.2810   0.01227   0.00640  -0.0919   0.3161   1.0000
   7.900   1.2894   0.01244   0.00654  -0.0914   0.3061   1.0000
   8.000   1.2971   0.01265   0.00671  -0.0909   0.2958   1.0000
   8.100   1.3044   0.01290   0.00689  -0.0903   0.2847   1.0000
   8.200   1.3120   0.01312   0.00707  -0.0897   0.2729   1.0000
   8.300   1.3191   0.01336   0.00726  -0.0891   0.2611   1.0000
   8.400   1.3258   0.01363   0.00747  -0.0884   0.2489   1.0000
   8.500   1.3321   0.01393   0.00770  -0.0877   0.2362   1.0000
   8.600   1.3381   0.01424   0.00794  -0.0869   0.2231   1.0000
   8.700   1.3438   0.01457   0.00819  -0.0861   0.2099   1.0000
   8.800   1.3494   0.01490   0.00845  -0.0852   0.1966   1.0000
   8.900   1.3547   0.01523   0.00872  -0.0844   0.1836   1.0000
   9.000   1.3593   0.01557   0.00899  -0.0833   0.1713   1.0000
   9.100   1.3635   0.01591   0.00927  -0.0822   0.1596   1.0000
   9.200   1.3674   0.01628   0.00957  -0.0811   0.1484   1.0000
   9.300   1.3709   0.01666   0.00988  -0.0800   0.1377   1.0000
   9.400   1.3749   0.01703   0.01020  -0.0789   0.1273   1.0000
   9.500   1.3791   0.01739   0.01051  -0.0778   0.1182   1.0000
   9.600   1.3828   0.01778   0.01085  -0.0767   0.1098   1.0000
   9.700   1.3867   0.01816   0.01118  -0.0757   0.1019   1.0000
   9.800   1.3909   0.01853   0.01152  -0.0747   0.0952   1.0000
   9.900   1.3944   0.01893   0.01188  -0.0737   0.0888   1.0000
  10.000   1.3988   0.01929   0.01222  -0.0727   0.0834   1.0000
  10.100   1.4025   0.01969   0.01259  -0.0717   0.0784   1.0000
  10.200   1.4066   0.02007   0.01296  -0.0708   0.0740   1.0000
  10.400   1.4139   0.02090   0.01376  -0.0689   0.0664   1.0000
  10.500   1.4186   0.02126   0.01412  -0.0680   0.0635   1.0000
  10.600   1.4230   0.02164   0.01451  -0.0672   0.0607   1.0000
  10.700   1.4262   0.02209   0.01495  -0.0663   0.0581   1.0000
  10.800   1.4289   0.02259   0.01544  -0.0653   0.0557   1.0000
  10.900   1.4341   0.02293   0.01581  -0.0646   0.0539   1.0000
  11.000   1.4383   0.02334   0.01623  -0.0638   0.0521   1.0000
  11.100   1.4416   0.02382   0.01670  -0.0629   0.0504   1.0000
  11.200   1.4437   0.02438   0.01726  -0.0620   0.0486   1.0000
  11.300   1.4464   0.02491   0.01780  -0.0611   0.0472   1.0000
  11.400   1.4513   0.02530   0.01823  -0.0604   0.0460   1.0000
  11.500   1.4555   0.02574   0.01870  -0.0598   0.0447   1.0000
  11.600   1.4588   0.02624   0.01921  -0.0590   0.0435   1.0000
  11.700   1.4614   0.02682   0.01979  -0.0582   0.0424   1.0000
  11.800   1.4626   0.02750   0.02048  -0.0573   0.0412   1.0000
  11.900   1.4632   0.02824   0.02123  -0.0564   0.0402   1.0000
  12.000   1.4678   0.02869   0.02172  -0.0559   0.0395   1.0000
  12.100   1.4716   0.02920   0.02227  -0.0553   0.0386   1.0000
  12.200   1.4750   0.02976   0.02285  -0.0547   0.0378   1.0000
  12.300   1.4779   0.03036   0.02348  -0.0541   0.0371   1.0000
  12.400   1.4802   0.03102   0.02416  -0.0534   0.0364   1.0000
  12.500   1.4816   0.03176   0.02491  -0.0528   0.0357   1.0000
  12.600   1.4819   0.03261   0.02577  -0.0521   0.0350   1.0000
  12.700   1.4803   0.03364   0.02683  -0.0513   0.0343   1.0000
  12.800   1.4814   0.03445   0.02768  -0.0507   0.0338   1.0000
  12.900   1.4848   0.03508   0.02834  -0.0502   0.0333   1.0000
  13.000   1.4877   0.03575   0.02906  -0.0498   0.0328   1.0000
  13.100   1.4900   0.03649   0.02983  -0.0493   0.0323   1.0000
  13.200   1.4921   0.03724   0.03062  -0.0489   0.0317   1.0000
  13.300   1.4940   0.03804   0.03144  -0.0485   0.0312   1.0000
  13.400   1.4956   0.03886   0.03229  -0.0481   0.0308   1.0000
  13.500   1.4964   0.03977   0.03323  -0.0476   0.0303   1.0000
  13.600   1.4964   0.04078   0.03425  -0.0472   0.0299   1.0000
  13.700   1.4953   0.04191   0.03541  -0.0468   0.0295   1.0000
  13.800   1.4928   0.04321   0.03673  -0.0463   0.0291   1.0000
  13.900   1.4886   0.04468   0.03824  -0.0459   0.0287   1.0000
  14.000   1.4906   0.04554   0.03914  -0.0456   0.0284   1.0000
  14.100   1.4925   0.04643   0.04007  -0.0454   0.0281   1.0000
  14.200   1.4938   0.04739   0.04107  -0.0452   0.0278   1.0000
  14.300   1.4947   0.04841   0.04213  -0.0449   0.0275   1.0000
  14.400   1.4954   0.04945   0.04321  -0.0447   0.0272   1.0000
  14.500   1.4959   0.05053   0.04433  -0.0446   0.0268   1.0000
  14.600   1.4963   0.05163   0.04546  -0.0444   0.0265   1.0000
  14.700   1.4964   0.05277   0.04665  -0.0443   0.0262   1.0000
  14.800   1.4965   0.05392   0.04783  -0.0442   0.0260   1.0000
  14.900   1.4963   0.05512   0.04906  -0.0441   0.0257   1.0000
  15.000   1.4959   0.05635   0.05031  -0.0440   0.0254   1.0000
