  
       XFOIL         Version 6.99
  
 Calculated polar for: NACA 4412                                       
  
 1 1 Reynolds number fixed          Mach number fixed         
  
 xtrf =   1.000 (top)        1.000 (bottom)  
 Mach =   0.000     Re =     0.500 e 6     Ncrit =   9.000
  
   alpha    CL        CD       CDp       CM     Top_Xtr  Bot_Xtr
  ------ -------- --------- --------- -------- -------- --------
 -15.000  -0.4182   0.16822   0.16561  -0.0211   1.0000   0.0221
 -14.900  -0.4152   0.16701   0.16440  -0.0216   1.0000   0.0223
 -14.800  -0.4123   0.16576   0.16316  -0.0222   1.0000   0.0225
 -14.700  -0.4096   0.16449   0.16188  -0.0227   1.0000   0.0228
 -14.600  -0.4069   0.16317   0.16056  -0.0233   1.0000   0.0231
 -14.500  -0.4045   0.16179   0.15918  -0.0239   1.0000   0.0234
 -14.400  -0.4025   0.16022   0.15762  -0.0247   1.0000   0.0239
 -14.200  -0.4136   0.15455   0.15197  -0.0299   1.0000   0.0247
 -14.100  -0.4101   0.15292   0.15034  -0.0298   1.0000   0.0249
 -14.000  -0.4046   0.15191   0.14933  -0.0295   1.0000   0.0250
 -13.900  -0.3999   0.15094   0.14836  -0.0294   1.0000   0.0251
 -13.800  -0.3956   0.14998   0.14740  -0.0295   1.0000   0.0252
 -13.700  -0.3919   0.14899   0.14641  -0.0297   1.0000   0.0253
 -13.600  -0.3885   0.14795   0.14537  -0.0299   1.0000   0.0254
 -13.500  -0.3853   0.14688   0.14431  -0.0302   1.0000   0.0255
 -13.400  -0.3823   0.14579   0.14322  -0.0306   1.0000   0.0257
 -13.300  -0.3794   0.14466   0.14210  -0.0309   1.0000   0.0259
 -13.200  -0.3767   0.14351   0.14094  -0.0313   1.0000   0.0261
 -13.100  -0.3742   0.14231   0.13974  -0.0318   1.0000   0.0263
 -13.000  -0.3718   0.14107   0.13851  -0.0322   1.0000   0.0266
 -12.900  -0.3695   0.13978   0.13722  -0.0327   1.0000   0.0268
 -12.800  -0.3675   0.13844   0.13588  -0.0332   1.0000   0.0272
 -12.700  -0.3658   0.13700   0.13445  -0.0338   1.0000   0.0276
 -12.400  -0.3809   0.12864   0.12611  -0.0400   1.0000   0.0291
 -12.300  -0.3810   0.12672   0.12420  -0.0409   1.0000   0.0292
 -12.200  -0.3782   0.12542   0.12290  -0.0404   1.0000   0.0293
 -12.100  -0.3746   0.12447   0.12196  -0.0402   1.0000   0.0295
 -12.000  -0.3708   0.12359   0.12109  -0.0401   1.0000   0.0296
 -11.900  -0.3666   0.12275   0.12025  -0.0400   1.0000   0.0297
 -11.800  -0.3628   0.12188   0.11938  -0.0400   1.0000   0.0298
 -11.700  -0.3595   0.12097   0.11847  -0.0400   1.0000   0.0299
 -11.600  -0.3565   0.12002   0.11752  -0.0401   1.0000   0.0301
 -11.500  -0.3539   0.11902   0.11653  -0.0403   1.0000   0.0303
 -11.400  -0.3516   0.11800   0.11551  -0.0404   1.0000   0.0305
 -11.300  -0.3494   0.11696   0.11448  -0.0406   1.0000   0.0307
 -11.200  -0.3475   0.11589   0.11342  -0.0408   1.0000   0.0311
 -11.100  -0.3461   0.11475   0.11228  -0.0411   1.0000   0.0314
 -11.000  -0.3452   0.11352   0.11106  -0.0414   1.0000   0.0319
 -10.900  -0.3453   0.11213   0.10968  -0.0418   1.0000   0.0325
 -10.700  -0.7085   0.04123   0.03840  -0.0807   0.9955   0.0223
 -10.600  -0.7083   0.03724   0.03412  -0.0851   0.9933   0.0224
 -10.500  -0.7033   0.03531   0.03202  -0.0868   0.9911   0.0226
 -10.400  -0.6964   0.03361   0.03015  -0.0883   0.9893   0.0228
 -10.300  -0.6883   0.03207   0.02845  -0.0897   0.9878   0.0230
 -10.200  -0.6793   0.03064   0.02686  -0.0910   0.9865   0.0232
 -10.100  -0.6694   0.02933   0.02538  -0.0922   0.9855   0.0235
 -10.000  -0.6587   0.02813   0.02400  -0.0934   0.9846   0.0237
  -9.900  -0.6474   0.02705   0.02276  -0.0945   0.9839   0.0240
  -9.800  -0.6357   0.02613   0.02167  -0.0955   0.9832   0.0242
  -9.700  -0.6280   0.02545   0.02087  -0.0954   0.9806   0.0244
  -9.600  -0.6173   0.02484   0.02012  -0.0959   0.9790   0.0246
  -9.500  -0.6071   0.02386   0.01900  -0.0965   0.9775   0.0249
  -9.400  -0.5968   0.02278   0.01784  -0.0971   0.9763   0.0252
  -9.300  -0.5843   0.02227   0.01732  -0.0978   0.9754   0.0255
  -9.200  -0.5709   0.02192   0.01696  -0.0986   0.9747   0.0258
  -9.100  -0.5572   0.02163   0.01665  -0.0994   0.9740   0.0262
  -9.000  -0.5432   0.02134   0.01632  -0.1002   0.9734   0.0266
  -8.900  -0.5292   0.02099   0.01592  -0.1011   0.9728   0.0270
  -8.800  -0.5150   0.02063   0.01551  -0.1020   0.9723   0.0274
  -8.700  -0.5007   0.02021   0.01502  -0.1029   0.9719   0.0278
  -8.600  -0.4863   0.01979   0.01451  -0.1038   0.9715   0.0283
  -8.500  -0.4718   0.01937   0.01401  -0.1047   0.9711   0.0286
  -8.400  -0.4647   0.01910   0.01367  -0.1040   0.9675   0.0289
  -8.300  -0.4521   0.01883   0.01331  -0.1044   0.9659   0.0291
  -8.200  -0.4409   0.01791   0.01233  -0.1048   0.9646   0.0297
  -8.100  -0.4279   0.01748   0.01190  -0.1054   0.9634   0.0301
  -8.000  -0.4144   0.01719   0.01160  -0.1061   0.9623   0.0306
  -7.900  -0.4004   0.01692   0.01132  -0.1067   0.9613   0.0310
  -7.800  -0.3865   0.01665   0.01103  -0.1074   0.9603   0.0315
  -7.700  -0.3725   0.01639   0.01073  -0.1081   0.9593   0.0321
  -7.600  -0.3585   0.01612   0.01042  -0.1087   0.9583   0.0327
  -7.500  -0.3446   0.01589   0.01014  -0.1093   0.9574   0.0333
  -7.400  -0.3362   0.01573   0.00993  -0.1087   0.9538   0.0337
  -7.300  -0.3252   0.01560   0.00975  -0.1086   0.9512   0.0342
  -7.200  -0.3151   0.01498   0.00911  -0.1086   0.9490   0.0349
  -7.100  -0.3033   0.01469   0.00882  -0.1088   0.9473   0.0356
  -7.000  -0.2911   0.01448   0.00860  -0.1091   0.9457   0.0362
  -6.900  -0.2788   0.01428   0.00839  -0.1093   0.9443   0.0368
  -6.800  -0.2666   0.01409   0.00818  -0.1095   0.9429   0.0375
  -6.700  -0.2567   0.01392   0.00799  -0.1093   0.9402   0.0381
  -6.600  -0.2468   0.01376   0.00779  -0.1090   0.9372   0.0388
  -6.500  -0.2359   0.01360   0.00759  -0.1089   0.9346   0.0394
  -6.400  -0.2244   0.01349   0.00743  -0.1089   0.9324   0.0400
  -6.300  -0.2141   0.01302   0.00697  -0.1088   0.9304   0.0411
  -6.200  -0.2028   0.01283   0.00678  -0.1089   0.9286   0.0420
  -6.000  -0.1813   0.01257   0.00652  -0.1087   0.9236   0.0438
  -5.900  -0.1709   0.01245   0.00637  -0.1085   0.9206   0.0448
  -5.800  -0.1600   0.01232   0.00622  -0.1084   0.9180   0.0457
  -5.700  -0.1487   0.01222   0.00607  -0.1083   0.9156   0.0465
  -5.600  -0.1381   0.01189   0.00573  -0.1082   0.9134   0.0477
  -5.500  -0.1269   0.01169   0.00553  -0.1082   0.9114   0.0490
  -5.400  -0.1168   0.01158   0.00543  -0.1080   0.9079   0.0501
  -5.300  -0.1062   0.01148   0.00532  -0.1078   0.9046   0.0514
  -5.200  -0.0953   0.01138   0.00520  -0.1077   0.9015   0.0528
  -5.100  -0.0841   0.01130   0.00508  -0.1076   0.8988   0.0540
  -5.000  -0.0731   0.01107   0.00483  -0.1076   0.8964   0.0556
  -4.900  -0.0625   0.01090   0.00468  -0.1075   0.8932   0.0574
  -4.800  -0.0520   0.01080   0.00458  -0.1073   0.8895   0.0589
  -4.700  -0.0411   0.01071   0.00447  -0.1072   0.8862   0.0606
  -4.600  -0.0299   0.01063   0.00436  -0.1071   0.8833   0.0623
  -4.500  -0.0186   0.01052   0.00422  -0.1071   0.8806   0.0641
  -4.400  -0.0080   0.01034   0.00406  -0.1070   0.8775   0.0668
  -4.300   0.0027   0.01025   0.00398  -0.1069   0.8736   0.0690
  -4.200   0.0136   0.01017   0.00389  -0.1068   0.8700   0.0713
  -4.100   0.0249   0.01012   0.00379  -0.1067   0.8667   0.0733
  -4.000   0.0359   0.00995   0.00362  -0.1066   0.8638   0.0766
  -3.900   0.0466   0.00985   0.00355  -0.1065   0.8598   0.0796
  -3.800   0.0575   0.00979   0.00348  -0.1064   0.8557   0.0826
  -3.700   0.0687   0.00975   0.00340  -0.1063   0.8520   0.0852
  -3.600   0.0796   0.00960   0.00326  -0.1063   0.8486   0.0897
  -3.500   0.0906   0.00952   0.00319  -0.1062   0.8449   0.0936
  -3.400   0.1016   0.00948   0.00313  -0.1061   0.8407   0.0972
  -3.300   0.1125   0.00937   0.00304  -0.1060   0.8367   0.1019
  -3.200   0.1236   0.00930   0.00297  -0.1060   0.8330   0.1068
  -3.100   0.1348   0.00926   0.00290  -0.1059   0.8292   0.1114
  -3.000   0.1456   0.00916   0.00283  -0.1058   0.8246   0.1171
  -2.900   0.1566   0.00910   0.00278  -0.1058   0.8203   0.1230
  -2.800   0.1677   0.00906   0.00270  -0.1057   0.8163   0.1286
  -2.700   0.1786   0.00898   0.00266  -0.1056   0.8121   0.1357
  -2.600   0.1897   0.00894   0.00261  -0.1056   0.8073   0.1420
  -2.500   0.2006   0.00886   0.00256  -0.1055   0.8030   0.1498
  -2.400   0.2117   0.00883   0.00250  -0.1054   0.7990   0.1573
  -2.300   0.2226   0.00876   0.00247  -0.1054   0.7943   0.1658
  -2.200   0.2336   0.00872   0.00243  -0.1053   0.7894   0.1740
  -2.100   0.2446   0.00867   0.00239  -0.1052   0.7849   0.1834
  -2.000   0.2556   0.00863   0.00235  -0.1052   0.7803   0.1926
  -1.900   0.2665   0.00857   0.00232  -0.1051   0.7752   0.2029
  -1.800   0.2774   0.00853   0.00229  -0.1050   0.7703   0.2131
  -1.600   0.2994   0.00845   0.00224  -0.1049   0.7606   0.2357
  -1.500   0.3102   0.00841   0.00222  -0.1048   0.7555   0.2475
  -1.400   0.3212   0.00839   0.00219  -0.1047   0.7508   0.2599
  -1.300   0.3321   0.00834   0.00217  -0.1047   0.7455   0.2736
  -1.200   0.3429   0.00830   0.00216  -0.1046   0.7401   0.2877
  -1.100   0.3537   0.00826   0.00214  -0.1045   0.7351   0.3028
  -1.000   0.3646   0.00821   0.00213  -0.1045   0.7299   0.3192
  -0.900   0.3754   0.00816   0.00211  -0.1044   0.7244   0.3370
  -0.800   0.3861   0.00812   0.00209  -0.1043   0.7193   0.3571
  -0.700   0.3968   0.00805   0.00208  -0.1042   0.7141   0.3810
  -0.600   0.4073   0.00795   0.00208  -0.1041   0.7084   0.4130
  -0.500   0.4175   0.00782   0.00208  -0.1040   0.7032   0.4636
  -0.400   0.4275   0.00766   0.00210  -0.1038   0.6980   0.5278
  -0.300   0.4373   0.00749   0.00212  -0.1036   0.6923   0.5918
  -0.200   0.4468   0.00736   0.00214  -0.1032   0.6871   0.6514
  -0.100   0.4561   0.00722   0.00217  -0.1027   0.6819   0.7095
  -0.000   0.4647   0.00708   0.00220  -0.1021   0.6764   0.7681
   0.100   0.4723   0.00696   0.00223  -0.1011   0.6712   0.8270
   0.200   0.4798   0.00686   0.00227  -0.1000   0.6663   0.8864
   0.300   0.4936   0.00683   0.00229  -0.1002   0.6606   0.9407
   0.400   0.5143   0.00685   0.00227  -0.1022   0.6548   0.9756
   0.500   0.5342   0.00688   0.00227  -0.1041   0.6493   0.9946
   0.600   0.5490   0.00692   0.00226  -0.1049   0.6435   1.0000
   0.700   0.5590   0.00698   0.00227  -0.1047   0.6384   1.0000
   0.800   0.5693   0.00702   0.00228  -0.1045   0.6333   1.0000
   0.900   0.5796   0.00706   0.00229  -0.1043   0.6279   1.0000
   1.000   0.5897   0.00712   0.00230  -0.1040   0.6229   1.0000
   1.100   0.6000   0.00718   0.00231  -0.1038   0.6182   1.0000
   1.200   0.6104   0.00722   0.00233  -0.1037   0.6131   1.0000
   1.300   0.6207   0.00727   0.00234  -0.1035   0.6082   1.0000
   1.400   0.6309   0.00734   0.00236  -0.1033   0.6038   1.0000
   1.500   0.6415   0.00738   0.00238  -0.1031   0.5990   1.0000
   1.600   0.6519   0.00743   0.00240  -0.1030   0.5942   1.0000
   1.700   0.6622   0.00750   0.00242  -0.1028   0.5899   1.0000
   1.800   0.6727   0.00755   0.00245  -0.1026   0.5857   1.0000
   1.900   0.6833   0.00760   0.00248  -0.1025   0.5813   1.0000
   2.000   0.6938   0.00765   0.00251  -0.1024   0.5769   1.0000
   2.100   0.7041   0.00773   0.00254  -0.1022   0.5729   1.0000
   2.200   0.7147   0.00778   0.00257  -0.1021   0.5691   1.0000
   2.300   0.7254   0.00782   0.00260  -0.1020   0.5650   1.0000
   2.400   0.7360   0.00788   0.00263  -0.1018   0.5611   1.0000
   2.500   0.7464   0.00795   0.00267  -0.1017   0.5573   1.0000
   2.600   0.7569   0.00802   0.00271  -0.1015   0.5538   1.0000
   2.700   0.7677   0.00806   0.00275  -0.1015   0.5501   1.0000
   2.800   0.7783   0.00812   0.00279  -0.1014   0.5463   1.0000
   2.900   0.7888   0.00818   0.00283  -0.1012   0.5428   1.0000
   3.000   0.7992   0.00827   0.00287  -0.1011   0.5395   1.0000
   3.100   0.8100   0.00831   0.00291  -0.1010   0.5361   1.0000
   3.200   0.8208   0.00836   0.00296  -0.1009   0.5327   1.0000
   3.300   0.8314   0.00842   0.00300  -0.1008   0.5292   1.0000
   3.400   0.8418   0.00849   0.00305  -0.1007   0.5259   1.0000
   3.500   0.8522   0.00858   0.00310  -0.1005   0.5228   1.0000
   3.600   0.8631   0.00862   0.00315  -0.1004   0.5197   1.0000
   3.700   0.8738   0.00867   0.00320  -0.1004   0.5163   1.0000
   3.800   0.8844   0.00873   0.00325  -0.1003   0.5129   1.0000
   3.900   0.8948   0.00880   0.00330  -0.1001   0.5098   1.0000
   4.000   0.9051   0.00890   0.00336  -0.1000   0.5068   1.0000
   4.100   0.9159   0.00894   0.00341  -0.0999   0.5037   1.0000
   4.200   0.9267   0.00899   0.00347  -0.0998   0.5004   1.0000
   4.300   0.9372   0.00905   0.00353  -0.0997   0.4971   1.0000
   4.400   0.9476   0.00913   0.00359  -0.0996   0.4939   1.0000
   4.500   0.9578   0.00922   0.00365  -0.0994   0.4908   1.0000
   4.600   0.9685   0.00927   0.00371  -0.0993   0.4877   1.0000
   4.700   0.9792   0.00932   0.00377  -0.0992   0.4842   1.0000
   4.800   0.9896   0.00938   0.00383  -0.0991   0.4807   1.0000
   4.900   0.9999   0.00947   0.00389  -0.0989   0.4772   1.0000
   5.000   1.0099   0.00957   0.00396  -0.0987   0.4738   1.0000
   5.100   1.0207   0.00960   0.00403  -0.0986   0.4702   1.0000
   5.200   1.0311   0.00966   0.00409  -0.0985   0.4661   1.0000
   5.300   1.0412   0.00974   0.00415  -0.0983   0.4620   1.0000
   5.400   1.0510   0.00985   0.00422  -0.0981   0.4581   1.0000
   5.500   1.0616   0.00989   0.00428  -0.0980   0.4538   1.0000
   5.600   1.0718   0.00995   0.00435  -0.0978   0.4491   1.0000
   5.700   1.0817   0.01004   0.00441  -0.0976   0.4446   1.0000
   5.800   1.0916   0.01013   0.00449  -0.0974   0.4404   1.0000
   5.900   1.1020   0.01018   0.00456  -0.0973   0.4358   1.0000
   6.000   1.1120   0.01025   0.00463  -0.0971   0.4311   1.0000
   6.100   1.1216   0.01036   0.00471  -0.0968   0.4267   1.0000
   6.200   1.1319   0.01042   0.00479  -0.0966   0.4222   1.0000
   6.300   1.1421   0.01049   0.00486  -0.0965   0.4174   1.0000
   6.400   1.1517   0.01059   0.00494  -0.0962   0.4125   1.0000
   6.500   1.1615   0.01068   0.00502  -0.0960   0.4079   1.0000
   6.600   1.1717   0.01074   0.00511  -0.0958   0.4025   1.0000
   6.700   1.1813   0.01084   0.00519  -0.0956   0.3971   1.0000
   6.800   1.1909   0.01094   0.00528  -0.0953   0.3918   1.0000
   6.900   1.2008   0.01102   0.00537  -0.0951   0.3856   1.0000
   7.000   1.2099   0.01114   0.00546  -0.0948   0.3795   1.0000
   7.100   1.2196   0.01124   0.00555  -0.0945   0.3732   1.0000
   7.200   1.2288   0.01136   0.00565  -0.0942   0.3659   1.0000
   7.300   1.2379   0.01148   0.00576  -0.0939   0.3590   1.0000
   7.400   1.2470   0.01161   0.00588  -0.0935   0.3511   1.0000
   7.500   1.2558   0.01176   0.00600  -0.0931   0.3433   1.0000
   7.600   1.2643   0.01192   0.00612  -0.0927   0.3344   1.0000
   7.700   1.2729   0.01207   0.00625  -0.0923   0.3256   1.0000
   7.800   1.2807   0.01228   0.00640  -0.0918   0.3163   1.0000
   7.900   1.2892   0.01244   0.00654  -0.0914   0.3061   1.0000
   8.000   1.2970   0.01265   0.00671  -0.0909   0.2959   1.0000
   8.100   1.3043   0.01289   0.00689  -0.0902   0.2849   1.0000
   8.200   1.3117   0.01312   0.00707  -0.0897   0.2731   1.0000
   8.300   1.3189   0.01336   0.00726  -0.0891   0.2612   1.0000
   8.400   1.3256   0.01363   0.00747  -0.0884   0.2489   1.0000
   8.500   1.3319   0.01392   0.00770  -0.0876   0.2364   1.0000
   8.600   1.3379   0.01423   0.00793  -0.0869   0.2234   1.0000
   8.700   1.3436   0.01456   0.00819  -0.0860   0.2102   1.0000
   8.800   1.3490   0.01489   0.00845  -0.0852   0.1968   1.0000
   8.900   1.3543   0.01523   0.00871  -0.0843   0.1839   1.0000
   9.000   1.3589   0.01556   0.00898  -0.0833   0.1716   1.0000
   9.100   1.3630   0.01591   0.00926  -0.0821   0.1597   1.0000
   9.200   1.3670   0.01627   0.00956  -0.0810   0.1487   1.0000
   9.300   1.3706   0.01665   0.00988  -0.0799   0.1379   1.0000
   9.400   1.3745   0.01703   0.01020  -0.0788   0.1275   1.0000
   9.500   1.3787   0.01739   0.01051  -0.0778   0.1183   1.0000
   9.600   1.3824   0.01777   0.01084  -0.0767   0.1100   1.0000
   9.700   1.3862   0.01816   0.01118  -0.0756   0.1021   1.0000
   9.800   1.3906   0.01852   0.01151  -0.0746   0.0954   1.0000
   9.900   1.3940   0.01893   0.01188  -0.0736   0.0889   1.0000
  10.000   1.3985   0.01928   0.01222  -0.0727   0.0836   1.0000
  10.100   1.4021   0.01969   0.01259  -0.0716   0.0784   1.0000
  10.200   1.4063   0.02007   0.01296  -0.0707   0.0741   1.0000
  10.300   1.4106   0.02044   0.01332  -0.0698   0.0701   1.0000
  10.400   1.4135   0.02090   0.01376  -0.0688   0.0664   1.0000
  10.500   1.4183   0.02125   0.01412  -0.0680   0.0635   1.0000
  10.600   1.4226   0.02163   0.01450  -0.0671   0.0607   1.0000
  10.700   1.4258   0.02210   0.01495  -0.0662   0.0582   1.0000
  10.800   1.4288   0.02257   0.01543  -0.0652   0.0558   1.0000
  10.900   1.4338   0.02292   0.01580  -0.0645   0.0540   1.0000
  11.000   1.4380   0.02334   0.01622  -0.0637   0.0521   1.0000
  11.100   1.4412   0.02382   0.01671  -0.0629   0.0504   1.0000
  11.200   1.4431   0.02440   0.01728  -0.0619   0.0486   1.0000
  11.300   1.4464   0.02488   0.01778  -0.0611   0.0472   1.0000
  11.400   1.4512   0.02528   0.01821  -0.0604   0.0460   1.0000
  11.500   1.4553   0.02573   0.01868  -0.0597   0.0447   1.0000
  11.600   1.4585   0.02624   0.01921  -0.0590   0.0435   1.0000
  11.700   1.4609   0.02683   0.01980  -0.0582   0.0424   1.0000
  11.800   1.4618   0.02754   0.02051  -0.0572   0.0412   1.0000
  11.900   1.4634   0.02820   0.02120  -0.0564   0.0403   1.0000
  12.000   1.4678   0.02866   0.02170  -0.0559   0.0395   1.0000
  12.100   1.4716   0.02918   0.02225  -0.0553   0.0387   1.0000
  12.200   1.4749   0.02974   0.02284  -0.0547   0.0379   1.0000
  12.300   1.4777   0.03035   0.02347  -0.0540   0.0371   1.0000
  12.400   1.4798   0.03103   0.02416  -0.0534   0.0364   1.0000
  12.500   1.4811   0.03178   0.02493  -0.0527   0.0357   1.0000
  12.600   1.4810   0.03266   0.02583  -0.0520   0.0350   1.0000
  12.700   1.4790   0.03373   0.02692  -0.0512   0.0343   1.0000
  12.800   1.4817   0.03440   0.02763  -0.0507   0.0339   1.0000
  12.900   1.4850   0.03503   0.02830  -0.0502   0.0334   1.0000
  13.000   1.4878   0.03572   0.02903  -0.0498   0.0328   1.0000
  13.100   1.4901   0.03645   0.02980  -0.0493   0.0323   1.0000
  13.200   1.4922   0.03722   0.03059  -0.0489   0.0318   1.0000
  13.300   1.4940   0.03801   0.03141  -0.0485   0.0312   1.0000
  13.400   1.4954   0.03885   0.03228  -0.0480   0.0308   1.0000
  13.500   1.4961   0.03978   0.03323  -0.0476   0.0303   1.0000
  13.600   1.4957   0.04082   0.03429  -0.0472   0.0299   1.0000
  13.700   1.4942   0.04200   0.03549  -0.0467   0.0295   1.0000
  13.800   1.4912   0.04334   0.03686  -0.0463   0.0291   1.0000
  13.900   1.4887   0.04465   0.03820  -0.0459   0.0287   1.0000
  14.000   1.4913   0.04546   0.03906  -0.0456   0.0284   1.0000
  14.100   1.4929   0.04637   0.04002  -0.0454   0.0281   1.0000
  14.200   1.4941   0.04734   0.04103  -0.0452   0.0278   1.0000
  14.300   1.4949   0.04836   0.04209  -0.0449   0.0275   1.0000
  14.400   1.4955   0.04942   0.04318  -0.0447   0.0272   1.0000
  14.500   1.4960   0.05049   0.04429  -0.0446   0.0268   1.0000
  14.600   1.4963   0.05160   0.04544  -0.0444   0.0265   1.0000
  14.700   1.4965   0.05274   0.04662  -0.0443   0.0262   1.0000
  14.800   1.4965   0.05391   0.04781  -0.0442   0.0260   1.0000
  14.900   1.4964   0.05511   0.04904  -0.0441   0.0257   1.0000
  15.000   1.4958   0.05635   0.05031  -0.0440   0.0254   1.0000
